WARNING: physical memory size is smaller than virtual memory size.

*** ChampSim Multicore Out-of-Order Simulator ***
Warmup Instructions: 200000000
Simulation Instructions: 200000000
Number of CPUs: 8
Page size: 4096

Off-chip DRAM Size: 8 GiB Channels: 2 Width: 64-bit Data Race: 3200 MT/s
Heartbeat CPU 0 instructions: 10000002 cycles: 2500086 heartbeat IPC: 4 cumulative IPC: 4 (Simulation time: 00 hr 03 min 43 sec)
Heartbeat CPU 1 instructions: 10000001 cycles: 2500314 heartbeat IPC: 3.999 cumulative IPC: 3.999 (Simulation time: 00 hr 03 min 43 sec)
Heartbeat CPU 3 instructions: 10000003 cycles: 2500890 heartbeat IPC: 3.999 cumulative IPC: 3.999 (Simulation time: 00 hr 03 min 43 sec)
Heartbeat CPU 4 instructions: 10000001 cycles: 2501558 heartbeat IPC: 3.998 cumulative IPC: 3.998 (Simulation time: 00 hr 03 min 43 sec)
Heartbeat CPU 5 instructions: 10000003 cycles: 2502292 heartbeat IPC: 3.996 cumulative IPC: 3.996 (Simulation time: 00 hr 03 min 43 sec)
Heartbeat CPU 6 instructions: 10000000 cycles: 2502332 heartbeat IPC: 3.996 cumulative IPC: 3.996 (Simulation time: 00 hr 03 min 43 sec)
Heartbeat CPU 7 instructions: 10000001 cycles: 2502477 heartbeat IPC: 3.996 cumulative IPC: 3.996 (Simulation time: 00 hr 03 min 43 sec)
Heartbeat CPU 2 instructions: 10000000 cycles: 2731297 heartbeat IPC: 3.661 cumulative IPC: 3.661 (Simulation time: 00 hr 04 min 04 sec)
Heartbeat CPU 0 instructions: 20000002 cycles: 5000086 heartbeat IPC: 4 cumulative IPC: 4 (Simulation time: 00 hr 07 min 30 sec)
Heartbeat CPU 1 instructions: 20000001 cycles: 5000314 heartbeat IPC: 4 cumulative IPC: 4 (Simulation time: 00 hr 07 min 30 sec)
Heartbeat CPU 3 instructions: 20000003 cycles: 5000890 heartbeat IPC: 4 cumulative IPC: 3.999 (Simulation time: 00 hr 07 min 30 sec)
Heartbeat CPU 4 instructions: 20000001 cycles: 5001558 heartbeat IPC: 4 cumulative IPC: 3.999 (Simulation time: 00 hr 07 min 30 sec)
Heartbeat CPU 6 instructions: 20000000 cycles: 5002332 heartbeat IPC: 4 cumulative IPC: 3.998 (Simulation time: 00 hr 07 min 30 sec)
Heartbeat CPU 5 instructions: 20000003 cycles: 5002461 heartbeat IPC: 4 cumulative IPC: 3.998 (Simulation time: 00 hr 07 min 30 sec)
Heartbeat CPU 7 instructions: 20000001 cycles: 5002477 heartbeat IPC: 4 cumulative IPC: 3.998 (Simulation time: 00 hr 07 min 30 sec)
Heartbeat CPU 2 instructions: 20000000 cycles: 5461847 heartbeat IPC: 3.662 cumulative IPC: 3.662 (Simulation time: 00 hr 08 min 11 sec)
Heartbeat CPU 0 instructions: 30000002 cycles: 7500086 heartbeat IPC: 4 cumulative IPC: 4 (Simulation time: 00 hr 11 min 16 sec)
Heartbeat CPU 1 instructions: 30000001 cycles: 7500314 heartbeat IPC: 4 cumulative IPC: 4 (Simulation time: 00 hr 11 min 16 sec)
Heartbeat CPU 3 instructions: 30000003 cycles: 7500890 heartbeat IPC: 4 cumulative IPC: 4 (Simulation time: 00 hr 11 min 16 sec)
Heartbeat CPU 4 instructions: 30000001 cycles: 7501558 heartbeat IPC: 4 cumulative IPC: 3.999 (Simulation time: 00 hr 11 min 16 sec)
Heartbeat CPU 6 instructions: 30000000 cycles: 7502332 heartbeat IPC: 4 cumulative IPC: 3.999 (Simulation time: 00 hr 11 min 16 sec)
Heartbeat CPU 7 instructions: 30000001 cycles: 7502477 heartbeat IPC: 4 cumulative IPC: 3.999 (Simulation time: 00 hr 11 min 16 sec)
Heartbeat CPU 5 instructions: 30000001 cycles: 7502670 heartbeat IPC: 4 cumulative IPC: 3.999 (Simulation time: 00 hr 11 min 16 sec)
Heartbeat CPU 2 instructions: 30000001 cycles: 8192900 heartbeat IPC: 3.662 cumulative IPC: 3.662 (Simulation time: 00 hr 12 min 18 sec)
Heartbeat CPU 0 instructions: 40000002 cycles: 10000086 heartbeat IPC: 4 cumulative IPC: 4 (Simulation time: 00 hr 15 min 01 sec)
Heartbeat CPU 1 instructions: 40000001 cycles: 10000314 heartbeat IPC: 4 cumulative IPC: 4 (Simulation time: 00 hr 15 min 01 sec)
Heartbeat CPU 3 instructions: 40000003 cycles: 10000890 heartbeat IPC: 4 cumulative IPC: 4 (Simulation time: 00 hr 15 min 01 sec)
Heartbeat CPU 4 instructions: 40000001 cycles: 10001558 heartbeat IPC: 4 cumulative IPC: 3.999 (Simulation time: 00 hr 15 min 01 sec)
Heartbeat CPU 6 instructions: 40000000 cycles: 10002332 heartbeat IPC: 4 cumulative IPC: 3.999 (Simulation time: 00 hr 15 min 01 sec)
Heartbeat CPU 7 instructions: 40000001 cycles: 10002477 heartbeat IPC: 4 cumulative IPC: 3.999 (Simulation time: 00 hr 15 min 01 sec)
Heartbeat CPU 5 instructions: 40000001 cycles: 10002871 heartbeat IPC: 4 cumulative IPC: 3.999 (Simulation time: 00 hr 15 min 01 sec)
Heartbeat CPU 2 instructions: 40000001 cycles: 10922900 heartbeat IPC: 3.663 cumulative IPC: 3.662 (Simulation time: 00 hr 16 min 24 sec)
Heartbeat CPU 0 instructions: 50000002 cycles: 12500086 heartbeat IPC: 4 cumulative IPC: 4 (Simulation time: 00 hr 18 min 46 sec)
Heartbeat CPU 1 instructions: 50000001 cycles: 12500314 heartbeat IPC: 4 cumulative IPC: 4 (Simulation time: 00 hr 18 min 46 sec)
Heartbeat CPU 3 instructions: 50000003 cycles: 12500890 heartbeat IPC: 4 cumulative IPC: 4 (Simulation time: 00 hr 18 min 46 sec)
Heartbeat CPU 4 instructions: 50000001 cycles: 12501558 heartbeat IPC: 4 cumulative IPC: 4 (Simulation time: 00 hr 18 min 46 sec)
Heartbeat CPU 6 instructions: 50000001 cycles: 12502395 heartbeat IPC: 4 cumulative IPC: 3.999 (Simulation time: 00 hr 18 min 46 sec)
Heartbeat CPU 7 instructions: 50000001 cycles: 12502477 heartbeat IPC: 4 cumulative IPC: 3.999 (Simulation time: 00 hr 18 min 46 sec)
Heartbeat CPU 5 instructions: 50000002 cycles: 12503075 heartbeat IPC: 4 cumulative IPC: 3.999 (Simulation time: 00 hr 18 min 47 sec)
Heartbeat CPU 2 instructions: 50000001 cycles: 13653266 heartbeat IPC: 3.663 cumulative IPC: 3.662 (Simulation time: 00 hr 20 min 30 sec)
Heartbeat CPU 0 instructions: 60000002 cycles: 15000086 heartbeat IPC: 4 cumulative IPC: 4 (Simulation time: 00 hr 22 min 33 sec)
Heartbeat CPU 1 instructions: 60000001 cycles: 15000314 heartbeat IPC: 4 cumulative IPC: 4 (Simulation time: 00 hr 22 min 33 sec)
Heartbeat CPU 3 instructions: 60000000 cycles: 15001095 heartbeat IPC: 4 cumulative IPC: 4 (Simulation time: 00 hr 22 min 33 sec)
Heartbeat CPU 4 instructions: 60000001 cycles: 15002453 heartbeat IPC: 3.999 cumulative IPC: 3.999 (Simulation time: 00 hr 22 min 33 sec)
Heartbeat CPU 6 instructions: 60000002 cycles: 15002517 heartbeat IPC: 4 cumulative IPC: 3.999 (Simulation time: 00 hr 22 min 33 sec)
Heartbeat CPU 5 instructions: 60000002 cycles: 15003256 heartbeat IPC: 4 cumulative IPC: 3.999 (Simulation time: 00 hr 22 min 33 sec)
Heartbeat CPU 7 instructions: 60000000 cycles: 15003279 heartbeat IPC: 3.999 cumulative IPC: 3.999 (Simulation time: 00 hr 22 min 33 sec)
Heartbeat CPU 2 instructions: 60000002 cycles: 16238346 heartbeat IPC: 3.868 cumulative IPC: 3.695 (Simulation time: 00 hr 24 min 25 sec)
Heartbeat CPU 0 instructions: 70000002 cycles: 17500086 heartbeat IPC: 4 cumulative IPC: 4 (Simulation time: 00 hr 26 min 17 sec)
Heartbeat CPU 1 instructions: 70000001 cycles: 17500314 heartbeat IPC: 4 cumulative IPC: 4 (Simulation time: 00 hr 26 min 18 sec)
Heartbeat CPU 3 instructions: 70000000 cycles: 17501095 heartbeat IPC: 4 cumulative IPC: 4 (Simulation time: 00 hr 26 min 18 sec)
Heartbeat CPU 6 instructions: 70000002 cycles: 17502517 heartbeat IPC: 4 cumulative IPC: 3.999 (Simulation time: 00 hr 26 min 18 sec)
Heartbeat CPU 7 instructions: 70000000 cycles: 17503279 heartbeat IPC: 4 cumulative IPC: 3.999 (Simulation time: 00 hr 26 min 18 sec)
Heartbeat CPU 4 instructions: 70000003 cycles: 17503371 heartbeat IPC: 3.999 cumulative IPC: 3.999 (Simulation time: 00 hr 26 min 18 sec)
Heartbeat CPU 5 instructions: 70000000 cycles: 17503660 heartbeat IPC: 3.999 cumulative IPC: 3.999 (Simulation time: 00 hr 26 min 18 sec)
Heartbeat CPU 2 instructions: 70000001 cycles: 18788282 heartbeat IPC: 3.922 cumulative IPC: 3.726 (Simulation time: 00 hr 28 min 13 sec)
Heartbeat CPU 0 instructions: 80000002 cycles: 20000086 heartbeat IPC: 4 cumulative IPC: 4 (Simulation time: 00 hr 30 min 01 sec)
Heartbeat CPU 1 instructions: 80000001 cycles: 20000314 heartbeat IPC: 4 cumulative IPC: 4 (Simulation time: 00 hr 30 min 01 sec)
Heartbeat CPU 3 instructions: 80000000 cycles: 20001095 heartbeat IPC: 4 cumulative IPC: 4 (Simulation time: 00 hr 30 min 01 sec)
Heartbeat CPU 6 instructions: 80000002 cycles: 20002517 heartbeat IPC: 4 cumulative IPC: 3.999 (Simulation time: 00 hr 30 min 01 sec)
Heartbeat CPU 7 instructions: 80000000 cycles: 20003279 heartbeat IPC: 4 cumulative IPC: 3.999 (Simulation time: 00 hr 30 min 01 sec)
Heartbeat CPU 4 instructions: 80000003 cycles: 20003371 heartbeat IPC: 4 cumulative IPC: 3.999 (Simulation time: 00 hr 30 min 01 sec)
Heartbeat CPU 5 instructions: 80000000 cycles: 20003843 heartbeat IPC: 4 cumulative IPC: 3.999 (Simulation time: 00 hr 30 min 02 sec)
Heartbeat CPU 2 instructions: 80000003 cycles: 21339243 heartbeat IPC: 3.92 cumulative IPC: 3.749 (Simulation time: 00 hr 32 min 01 sec)
Heartbeat CPU 0 instructions: 90000002 cycles: 22500086 heartbeat IPC: 4 cumulative IPC: 4 (Simulation time: 00 hr 33 min 44 sec)
Heartbeat CPU 1 instructions: 90000001 cycles: 22500314 heartbeat IPC: 4 cumulative IPC: 4 (Simulation time: 00 hr 33 min 44 sec)
Heartbeat CPU 3 instructions: 90000000 cycles: 22501095 heartbeat IPC: 4 cumulative IPC: 4 (Simulation time: 00 hr 33 min 44 sec)
Heartbeat CPU 6 instructions: 90000002 cycles: 22502517 heartbeat IPC: 4 cumulative IPC: 4 (Simulation time: 00 hr 33 min 45 sec)
Heartbeat CPU 7 instructions: 90000000 cycles: 22503279 heartbeat IPC: 4 cumulative IPC: 3.999 (Simulation time: 00 hr 33 min 45 sec)
Heartbeat CPU 4 instructions: 90000003 cycles: 22503371 heartbeat IPC: 4 cumulative IPC: 3.999 (Simulation time: 00 hr 33 min 45 sec)
Heartbeat CPU 5 instructions: 90000002 cycles: 22504031 heartbeat IPC: 4 cumulative IPC: 3.999 (Simulation time: 00 hr 33 min 45 sec)
Heartbeat CPU 2 instructions: 90000000 cycles: 23890040 heartbeat IPC: 3.92 cumulative IPC: 3.767 (Simulation time: 00 hr 35 min 51 sec)
Heartbeat CPU 0 instructions: 100000002 cycles: 25000086 heartbeat IPC: 4 cumulative IPC: 4 (Simulation time: 00 hr 37 min 31 sec)
Heartbeat CPU 1 instructions: 100000001 cycles: 25000314 heartbeat IPC: 4 cumulative IPC: 4 (Simulation time: 00 hr 37 min 31 sec)
Heartbeat CPU 3 instructions: 100000000 cycles: 25001095 heartbeat IPC: 4 cumulative IPC: 4 (Simulation time: 00 hr 37 min 31 sec)
Heartbeat CPU 6 instructions: 100000002 cycles: 25002881 heartbeat IPC: 3.999 cumulative IPC: 4 (Simulation time: 00 hr 37 min 31 sec)
Heartbeat CPU 5 instructions: 100000003 cycles: 25004225 heartbeat IPC: 4 cumulative IPC: 3.999 (Simulation time: 00 hr 37 min 31 sec)
Heartbeat CPU 7 instructions: 100000001 cycles: 25004287 heartbeat IPC: 3.998 cumulative IPC: 3.999 (Simulation time: 00 hr 37 min 31 sec)
Heartbeat CPU 4 instructions: 100000002 cycles: 25006852 heartbeat IPC: 3.994 cumulative IPC: 3.999 (Simulation time: 00 hr 37 min 31 sec)
Heartbeat CPU 2 instructions: 100000003 cycles: 26440621 heartbeat IPC: 3.921 cumulative IPC: 3.782 (Simulation time: 00 hr 39 min 39 sec)
Heartbeat CPU 0 instructions: 110000002 cycles: 27500086 heartbeat IPC: 4 cumulative IPC: 4 (Simulation time: 00 hr 41 min 14 sec)
Heartbeat CPU 1 instructions: 110000001 cycles: 27500314 heartbeat IPC: 4 cumulative IPC: 4 (Simulation time: 00 hr 41 min 14 sec)
Heartbeat CPU 3 instructions: 110000000 cycles: 27501095 heartbeat IPC: 4 cumulative IPC: 4 (Simulation time: 00 hr 41 min 14 sec)
Heartbeat CPU 6 instructions: 110000002 cycles: 27502881 heartbeat IPC: 4 cumulative IPC: 4 (Simulation time: 00 hr 41 min 15 sec)
Heartbeat CPU 7 instructions: 110000001 cycles: 27504287 heartbeat IPC: 4 cumulative IPC: 3.999 (Simulation time: 00 hr 41 min 15 sec)
Heartbeat CPU 5 instructions: 110000002 cycles: 27504448 heartbeat IPC: 4 cumulative IPC: 3.999 (Simulation time: 00 hr 41 min 15 sec)
Heartbeat CPU 4 instructions: 110000002 cycles: 27506852 heartbeat IPC: 4 cumulative IPC: 3.999 (Simulation time: 00 hr 41 min 15 sec)
Heartbeat CPU 2 instructions: 110000000 cycles: 28993141 heartbeat IPC: 3.918 cumulative IPC: 3.794 (Simulation time: 00 hr 43 min 28 sec)
Heartbeat CPU 0 instructions: 120000002 cycles: 30000086 heartbeat IPC: 4 cumulative IPC: 4 (Simulation time: 00 hr 44 min 58 sec)
Heartbeat CPU 1 instructions: 120000001 cycles: 30000314 heartbeat IPC: 4 cumulative IPC: 4 (Simulation time: 00 hr 44 min 58 sec)
Heartbeat CPU 3 instructions: 120000000 cycles: 30001095 heartbeat IPC: 4 cumulative IPC: 4 (Simulation time: 00 hr 44 min 58 sec)
Heartbeat CPU 6 instructions: 120000002 cycles: 30002881 heartbeat IPC: 4 cumulative IPC: 4 (Simulation time: 00 hr 44 min 59 sec)
Heartbeat CPU 7 instructions: 120000001 cycles: 30004287 heartbeat IPC: 4 cumulative IPC: 3.999 (Simulation time: 00 hr 44 min 59 sec)
Heartbeat CPU 5 instructions: 120000001 cycles: 30004638 heartbeat IPC: 4 cumulative IPC: 3.999 (Simulation time: 00 hr 44 min 59 sec)
Heartbeat CPU 4 instructions: 120000002 cycles: 30006852 heartbeat IPC: 4 cumulative IPC: 3.999 (Simulation time: 00 hr 44 min 59 sec)
Heartbeat CPU 2 instructions: 120000001 cycles: 31545321 heartbeat IPC: 3.918 cumulative IPC: 3.804 (Simulation time: 00 hr 47 min 17 sec)
Heartbeat CPU 0 instructions: 130000002 cycles: 32500086 heartbeat IPC: 4 cumulative IPC: 4 (Simulation time: 00 hr 48 min 43 sec)
Heartbeat CPU 1 instructions: 130000001 cycles: 32500314 heartbeat IPC: 4 cumulative IPC: 4 (Simulation time: 00 hr 48 min 43 sec)
Heartbeat CPU 3 instructions: 130000000 cycles: 32501095 heartbeat IPC: 4 cumulative IPC: 4 (Simulation time: 00 hr 48 min 43 sec)
Heartbeat CPU 6 instructions: 130000000 cycles: 32502978 heartbeat IPC: 4 cumulative IPC: 4 (Simulation time: 00 hr 48 min 43 sec)
Heartbeat CPU 7 instructions: 130000001 cycles: 32504287 heartbeat IPC: 4 cumulative IPC: 3.999 (Simulation time: 00 hr 48 min 44 sec)
Heartbeat CPU 5 instructions: 130000000 cycles: 32504828 heartbeat IPC: 4 cumulative IPC: 3.999 (Simulation time: 00 hr 48 min 44 sec)
Heartbeat CPU 4 instructions: 130000003 cycles: 32506888 heartbeat IPC: 4 cumulative IPC: 3.999 (Simulation time: 00 hr 48 min 44 sec)
Heartbeat CPU 2 instructions: 130000001 cycles: 34095003 heartbeat IPC: 3.922 cumulative IPC: 3.813 (Simulation time: 00 hr 51 min 07 sec)
Heartbeat CPU 0 instructions: 140000002 cycles: 35000086 heartbeat IPC: 4 cumulative IPC: 4 (Simulation time: 00 hr 52 min 29 sec)
Heartbeat CPU 1 instructions: 140000001 cycles: 35000314 heartbeat IPC: 4 cumulative IPC: 4 (Simulation time: 00 hr 52 min 29 sec)
Heartbeat CPU 3 instructions: 140000000 cycles: 35001095 heartbeat IPC: 4 cumulative IPC: 4 (Simulation time: 00 hr 52 min 29 sec)
Heartbeat CPU 6 instructions: 140000003 cycles: 35003035 heartbeat IPC: 4 cumulative IPC: 4 (Simulation time: 00 hr 52 min 29 sec)
Heartbeat CPU 7 instructions: 140000001 cycles: 35004287 heartbeat IPC: 4 cumulative IPC: 4 (Simulation time: 00 hr 52 min 29 sec)
Heartbeat CPU 5 instructions: 140000003 cycles: 35005264 heartbeat IPC: 3.999 cumulative IPC: 3.999 (Simulation time: 00 hr 52 min 29 sec)
Heartbeat CPU 4 instructions: 140000003 cycles: 35006888 heartbeat IPC: 4 cumulative IPC: 3.999 (Simulation time: 00 hr 52 min 29 sec)
Heartbeat CPU 2 instructions: 140000001 cycles: 36646384 heartbeat IPC: 3.919 cumulative IPC: 3.82 (Simulation time: 00 hr 54 min 58 sec)
Heartbeat CPU 0 instructions: 150000002 cycles: 37500086 heartbeat IPC: 4 cumulative IPC: 4 (Simulation time: 00 hr 56 min 15 sec)
Heartbeat CPU 1 instructions: 150000001 cycles: 37500314 heartbeat IPC: 4 cumulative IPC: 4 (Simulation time: 00 hr 56 min 15 sec)
Heartbeat CPU 3 instructions: 150000000 cycles: 37501095 heartbeat IPC: 4 cumulative IPC: 4 (Simulation time: 00 hr 56 min 15 sec)
Heartbeat CPU 6 instructions: 150000003 cycles: 37503035 heartbeat IPC: 4 cumulative IPC: 4 (Simulation time: 00 hr 56 min 15 sec)
Heartbeat CPU 7 instructions: 150000001 cycles: 37504287 heartbeat IPC: 4 cumulative IPC: 4 (Simulation time: 00 hr 56 min 15 sec)
Heartbeat CPU 5 instructions: 150000002 cycles: 37505474 heartbeat IPC: 4 cumulative IPC: 3.999 (Simulation time: 00 hr 56 min 15 sec)
Heartbeat CPU 4 instructions: 150000003 cycles: 37506888 heartbeat IPC: 4 cumulative IPC: 3.999 (Simulation time: 00 hr 56 min 15 sec)
Heartbeat CPU 2 instructions: 150000002 cycles: 39198085 heartbeat IPC: 3.919 cumulative IPC: 3.827 (Simulation time: 00 hr 58 min 49 sec)
Heartbeat CPU 0 instructions: 160000002 cycles: 40000086 heartbeat IPC: 4 cumulative IPC: 4 (Simulation time: 01 hr 00 min 02 sec)
Heartbeat CPU 1 instructions: 160000001 cycles: 40000314 heartbeat IPC: 4 cumulative IPC: 4 (Simulation time: 01 hr 00 min 02 sec)
Heartbeat CPU 3 instructions: 160000001 cycles: 40001462 heartbeat IPC: 3.999 cumulative IPC: 4 (Simulation time: 01 hr 00 min 02 sec)
Heartbeat CPU 6 instructions: 160000003 cycles: 40003035 heartbeat IPC: 4 cumulative IPC: 4 (Simulation time: 01 hr 00 min 02 sec)
Heartbeat CPU 7 instructions: 160000000 cycles: 40004935 heartbeat IPC: 3.999 cumulative IPC: 4 (Simulation time: 01 hr 00 min 02 sec)
Heartbeat CPU 5 instructions: 160000000 cycles: 40005653 heartbeat IPC: 4 cumulative IPC: 3.999 (Simulation time: 01 hr 00 min 03 sec)
Heartbeat CPU 4 instructions: 160000002 cycles: 40007467 heartbeat IPC: 3.999 cumulative IPC: 3.999 (Simulation time: 01 hr 00 min 03 sec)
Heartbeat CPU 2 instructions: 160000003 cycles: 41750639 heartbeat IPC: 3.918 cumulative IPC: 3.832 (Simulation time: 01 hr 02 min 41 sec)
Heartbeat CPU 0 instructions: 170000002 cycles: 42500086 heartbeat IPC: 4 cumulative IPC: 4 (Simulation time: 01 hr 03 min 50 sec)
Heartbeat CPU 1 instructions: 170000001 cycles: 42500314 heartbeat IPC: 4 cumulative IPC: 4 (Simulation time: 01 hr 03 min 50 sec)
Heartbeat CPU 3 instructions: 170000001 cycles: 42501462 heartbeat IPC: 4 cumulative IPC: 4 (Simulation time: 01 hr 03 min 50 sec)
Heartbeat CPU 6 instructions: 170000000 cycles: 42503393 heartbeat IPC: 3.999 cumulative IPC: 4 (Simulation time: 01 hr 03 min 50 sec)
Heartbeat CPU 7 instructions: 170000000 cycles: 42504935 heartbeat IPC: 4 cumulative IPC: 4 (Simulation time: 01 hr 03 min 50 sec)
Heartbeat CPU 5 instructions: 170000002 cycles: 42505839 heartbeat IPC: 4 cumulative IPC: 3.999 (Simulation time: 01 hr 03 min 50 sec)
Heartbeat CPU 4 instructions: 170000002 cycles: 42507467 heartbeat IPC: 4 cumulative IPC: 3.999 (Simulation time: 01 hr 03 min 50 sec)
Heartbeat CPU 2 instructions: 170000003 cycles: 44300808 heartbeat IPC: 3.921 cumulative IPC: 3.837 (Simulation time: 01 hr 06 min 34 sec)
Heartbeat CPU 0 instructions: 180000002 cycles: 45000086 heartbeat IPC: 4 cumulative IPC: 4 (Simulation time: 01 hr 07 min 37 sec)
Heartbeat CPU 1 instructions: 180000001 cycles: 45000314 heartbeat IPC: 4 cumulative IPC: 4 (Simulation time: 01 hr 07 min 37 sec)
Heartbeat CPU 3 instructions: 180000001 cycles: 45001462 heartbeat IPC: 4 cumulative IPC: 4 (Simulation time: 01 hr 07 min 38 sec)
Heartbeat CPU 6 instructions: 180000000 cycles: 45003393 heartbeat IPC: 4 cumulative IPC: 4 (Simulation time: 01 hr 07 min 38 sec)
Heartbeat CPU 7 instructions: 180000000 cycles: 45004935 heartbeat IPC: 4 cumulative IPC: 4 (Simulation time: 01 hr 07 min 38 sec)
Heartbeat CPU 5 instructions: 180000002 cycles: 45006037 heartbeat IPC: 4 cumulative IPC: 3.999 (Simulation time: 01 hr 07 min 38 sec)
Heartbeat CPU 4 instructions: 180000002 cycles: 45007467 heartbeat IPC: 4 cumulative IPC: 3.999 (Simulation time: 01 hr 07 min 38 sec)
Heartbeat CPU 2 instructions: 180000001 cycles: 46852294 heartbeat IPC: 3.919 cumulative IPC: 3.842 (Simulation time: 01 hr 10 min 26 sec)
Heartbeat CPU 0 instructions: 190000002 cycles: 47500086 heartbeat IPC: 4 cumulative IPC: 4 (Simulation time: 01 hr 11 min 26 sec)
Heartbeat CPU 1 instructions: 190000001 cycles: 47500314 heartbeat IPC: 4 cumulative IPC: 4 (Simulation time: 01 hr 11 min 26 sec)
Heartbeat CPU 3 instructions: 190000001 cycles: 47501462 heartbeat IPC: 4 cumulative IPC: 4 (Simulation time: 01 hr 11 min 26 sec)
Heartbeat CPU 6 instructions: 190000000 cycles: 47503393 heartbeat IPC: 4 cumulative IPC: 4 (Simulation time: 01 hr 11 min 26 sec)
Heartbeat CPU 7 instructions: 190000000 cycles: 47504987 heartbeat IPC: 4 cumulative IPC: 4 (Simulation time: 01 hr 11 min 26 sec)
Heartbeat CPU 5 instructions: 190000001 cycles: 47506220 heartbeat IPC: 4 cumulative IPC: 3.999 (Simulation time: 01 hr 11 min 26 sec)
Heartbeat CPU 4 instructions: 190000002 cycles: 47507467 heartbeat IPC: 4 cumulative IPC: 3.999 (Simulation time: 01 hr 11 min 26 sec)
Heartbeat CPU 2 instructions: 190000003 cycles: 49403801 heartbeat IPC: 3.919 cumulative IPC: 3.846 (Simulation time: 01 hr 14 min 18 sec)
Heartbeat CPU 0 instructions: 200000002 cycles: 50000086 heartbeat IPC: 4 cumulative IPC: 4 (Simulation time: 01 hr 15 min 12 sec)
Warmup finished CPU 0 instructions: 200000002 cycles: 50000087 cumulative IPC: 4 (Simulation time: 01 hr 15 min 12 sec)
Heartbeat CPU 1 instructions: 200000001 cycles: 50000314 heartbeat IPC: 4 cumulative IPC: 4 (Simulation time: 01 hr 15 min 12 sec)
Warmup finished CPU 1 instructions: 200000001 cycles: 50000315 cumulative IPC: 4 (Simulation time: 01 hr 15 min 12 sec)
Heartbeat CPU 3 instructions: 200000001 cycles: 50001462 heartbeat IPC: 4 cumulative IPC: 4 (Simulation time: 01 hr 15 min 12 sec)
Warmup finished CPU 3 instructions: 200000001 cycles: 50001463 cumulative IPC: 4 (Simulation time: 01 hr 15 min 12 sec)
Heartbeat CPU 6 instructions: 200000001 cycles: 50003448 heartbeat IPC: 4 cumulative IPC: 4 (Simulation time: 01 hr 15 min 13 sec)
Warmup finished CPU 6 instructions: 200000001 cycles: 50003449 cumulative IPC: 4 (Simulation time: 01 hr 15 min 13 sec)
Heartbeat CPU 7 instructions: 200000000 cycles: 50004987 heartbeat IPC: 4 cumulative IPC: 4 (Simulation time: 01 hr 15 min 13 sec)
Warmup finished CPU 7 instructions: 200000000 cycles: 50004988 cumulative IPC: 4 (Simulation time: 01 hr 15 min 13 sec)
Heartbeat CPU 5 instructions: 200000001 cycles: 50006586 heartbeat IPC: 3.999 cumulative IPC: 3.999 (Simulation time: 01 hr 15 min 13 sec)
Warmup finished CPU 5 instructions: 200000001 cycles: 50006587 cumulative IPC: 3.999 (Simulation time: 01 hr 15 min 13 sec)
Heartbeat CPU 4 instructions: 200000002 cycles: 50007467 heartbeat IPC: 4 cumulative IPC: 3.999 (Simulation time: 01 hr 15 min 13 sec)
Warmup finished CPU 4 instructions: 200000002 cycles: 50007468 cumulative IPC: 3.999 (Simulation time: 01 hr 15 min 13 sec)
Heartbeat CPU 2 instructions: 200000000 cycles: 51954654 heartbeat IPC: 3.92 cumulative IPC: 3.85 (Simulation time: 01 hr 18 min 09 sec)
Warmup finished CPU 2 instructions: 200000000 cycles: 51954655 cumulative IPC: 3.85 (Simulation time: 01 hr 18 min 09 sec)
Warmup complete CPU 0 instructions: 207818274 cycles: 51954655 cumulative IPC: 4 (Simulation time: 01 hr 18 min 09 sec)
Warmup complete CPU 1 instructions: 207817361 cycles: 51954655 cumulative IPC: 4 (Simulation time: 01 hr 18 min 09 sec)
Warmup complete CPU 2 instructions: 200000000 cycles: 51954655 cumulative IPC: 3.85 (Simulation time: 01 hr 18 min 09 sec)
Warmup complete CPU 3 instructions: 207812769 cycles: 51954655 cumulative IPC: 4 (Simulation time: 01 hr 18 min 09 sec)
Warmup complete CPU 4 instructions: 207788750 cycles: 51954655 cumulative IPC: 3.999 (Simulation time: 01 hr 18 min 09 sec)
Warmup complete CPU 5 instructions: 207792273 cycles: 51954655 cumulative IPC: 3.999 (Simulation time: 01 hr 18 min 09 sec)
Warmup complete CPU 6 instructions: 207804825 cycles: 51954655 cumulative IPC: 4 (Simulation time: 01 hr 18 min 09 sec)
Warmup complete CPU 7 instructions: 207798668 cycles: 51954655 cumulative IPC: 4 (Simulation time: 01 hr 18 min 09 sec)
Heartbeat CPU 6 instructions: 210000000 cycles: 52654559 heartbeat IPC: 3.772 cumulative IPC: 3.136 (Simulation time: 01 hr 18 min 47 sec)
Heartbeat CPU 5 instructions: 210000003 cycles: 53036505 heartbeat IPC: 3.3 cumulative IPC: 2.041 (Simulation time: 01 hr 19 min 08 sec)
Heartbeat CPU 1 instructions: 210000002 cycles: 53087345 heartbeat IPC: 3.239 cumulative IPC: 1.927 (Simulation time: 01 hr 19 min 11 sec)
Heartbeat CPU 0 instructions: 210000001 cycles: 54245453 heartbeat IPC: 2.356 cumulative IPC: 0.9524 (Simulation time: 01 hr 20 min 15 sec)
Heartbeat CPU 6 instructions: 220000001 cycles: 55892970 heartbeat IPC: 3.088 cumulative IPC: 3.097 (Simulation time: 01 hr 21 min 45 sec)
Heartbeat CPU 3 instructions: 210000002 cycles: 55952632 heartbeat IPC: 1.68 cumulative IPC: 0.5471 (Simulation time: 01 hr 21 min 49 sec)
Heartbeat CPU 4 instructions: 210000003 cycles: 56018082 heartbeat IPC: 1.664 cumulative IPC: 0.5442 (Simulation time: 01 hr 21 min 52 sec)
Heartbeat CPU 7 instructions: 210000000 cycles: 56031253 heartbeat IPC: 1.659 cumulative IPC: 0.54 (Simulation time: 01 hr 21 min 53 sec)
Heartbeat CPU 5 instructions: 220000000 cycles: 57712411 heartbeat IPC: 2.139 cumulative IPC: 2.12 (Simulation time: 01 hr 23 min 26 sec)
Heartbeat CPU 1 instructions: 220000000 cycles: 58289816 heartbeat IPC: 1.922 cumulative IPC: 1.923 (Simulation time: 01 hr 23 min 58 sec)
Heartbeat CPU 6 instructions: 230000002 cycles: 58981937 heartbeat IPC: 3.237 cumulative IPC: 3.158 (Simulation time: 01 hr 24 min 36 sec)
Heartbeat CPU 6 instructions: 240000000 cycles: 62186422 heartbeat IPC: 3.121 cumulative IPC: 3.147 (Simulation time: 01 hr 27 min 33 sec)
Heartbeat CPU 5 instructions: 230000000 cycles: 62426465 heartbeat IPC: 2.121 cumulative IPC: 2.121 (Simulation time: 01 hr 27 min 47 sec)
Heartbeat CPU 1 instructions: 230000003 cycles: 63430886 heartbeat IPC: 1.945 cumulative IPC: 1.933 (Simulation time: 01 hr 28 min 43 sec)
Heartbeat CPU 2 instructions: 210000003 cycles: 64678616 heartbeat IPC: 0.7859 cumulative IPC: 0.7859 (Simulation time: 01 hr 29 min 51 sec)
Heartbeat CPU 0 instructions: 220000001 cycles: 64774198 heartbeat IPC: 0.9498 cumulative IPC: 0.9502 (Simulation time: 01 hr 29 min 56 sec)
Heartbeat CPU 6 instructions: 250000001 cycles: 65413004 heartbeat IPC: 3.099 cumulative IPC: 3.135 (Simulation time: 01 hr 30 min 30 sec)
Heartbeat CPU 5 instructions: 240000000 cycles: 67153084 heartbeat IPC: 2.116 cumulative IPC: 2.119 (Simulation time: 01 hr 32 min 05 sec)
Heartbeat CPU 1 instructions: 240000001 cycles: 68604299 heartbeat IPC: 1.933 cumulative IPC: 1.933 (Simulation time: 01 hr 33 min 24 sec)
Heartbeat CPU 6 instructions: 260000002 cycles: 68620921 heartbeat IPC: 3.117 cumulative IPC: 3.132 (Simulation time: 01 hr 33 min 24 sec)
Heartbeat CPU 6 instructions: 270000000 cycles: 71672582 heartbeat IPC: 3.277 cumulative IPC: 3.154 (Simulation time: 01 hr 36 min 13 sec)
Heartbeat CPU 5 instructions: 250000003 cycles: 71877091 heartbeat IPC: 2.117 cumulative IPC: 2.119 (Simulation time: 01 hr 36 min 24 sec)
Heartbeat CPU 3 instructions: 220000001 cycles: 73415758 heartbeat IPC: 0.5726 cumulative IPC: 0.5679 (Simulation time: 01 hr 37 min 50 sec)
Heartbeat CPU 1 instructions: 250000002 cycles: 73770897 heartbeat IPC: 1.936 cumulative IPC: 1.934 (Simulation time: 01 hr 38 min 10 sec)
Heartbeat CPU 7 instructions: 220000003 cycles: 73890985 heartbeat IPC: 0.5599 cumulative IPC: 0.5562 (Simulation time: 01 hr 38 min 16 sec)
Heartbeat CPU 4 instructions: 220000002 cycles: 74524532 heartbeat IPC: 0.5404 cumulative IPC: 0.541 (Simulation time: 01 hr 38 min 52 sec)
Heartbeat CPU 6 instructions: 280000000 cycles: 74627327 heartbeat IPC: 3.384 cumulative IPC: 3.184 (Simulation time: 01 hr 38 min 57 sec)
Heartbeat CPU 0 instructions: 230000001 cycles: 75822690 heartbeat IPC: 0.9051 cumulative IPC: 0.9293 (Simulation time: 01 hr 40 min 03 sec)
Heartbeat CPU 5 instructions: 260000000 cycles: 76648763 heartbeat IPC: 2.096 cumulative IPC: 2.114 (Simulation time: 01 hr 40 min 48 sec)
Heartbeat CPU 2 instructions: 220000002 cycles: 77215384 heartbeat IPC: 0.7977 cumulative IPC: 0.7917 (Simulation time: 01 hr 41 min 20 sec)
Heartbeat CPU 6 instructions: 290000000 cycles: 77809237 heartbeat IPC: 3.143 cumulative IPC: 3.179 (Simulation time: 01 hr 41 min 53 sec)
Heartbeat CPU 1 instructions: 260000003 cycles: 78973226 heartbeat IPC: 1.922 cumulative IPC: 1.931 (Simulation time: 01 hr 42 min 57 sec)
Heartbeat CPU 6 instructions: 300000000 cycles: 81181121 heartbeat IPC: 2.966 cumulative IPC: 3.155 (Simulation time: 01 hr 44 min 58 sec)
Heartbeat CPU 5 instructions: 270000000 cycles: 81393869 heartbeat IPC: 2.107 cumulative IPC: 2.113 (Simulation time: 01 hr 45 min 10 sec)
Heartbeat CPU 1 instructions: 270000003 cycles: 84133142 heartbeat IPC: 1.938 cumulative IPC: 1.932 (Simulation time: 01 hr 47 min 37 sec)
Heartbeat CPU 6 instructions: 310000001 cycles: 85041088 heartbeat IPC: 2.591 cumulative IPC: 3.089 (Simulation time: 01 hr 48 min 27 sec)
Heartbeat CPU 0 instructions: 240000002 cycles: 85685848 heartbeat IPC: 1.014 cumulative IPC: 0.9541 (Simulation time: 01 hr 49 min 01 sec)
Heartbeat CPU 5 instructions: 280000001 cycles: 86115417 heartbeat IPC: 2.118 cumulative IPC: 2.114 (Simulation time: 01 hr 49 min 25 sec)
Heartbeat CPU 6 instructions: 320000001 cycles: 88368864 heartbeat IPC: 3.005 cumulative IPC: 3.081 (Simulation time: 01 hr 51 min 30 sec)
Heartbeat CPU 1 instructions: 280000000 cycles: 89410649 heartbeat IPC: 1.895 cumulative IPC: 1.927 (Simulation time: 01 hr 52 min 28 sec)
Heartbeat CPU 2 instructions: 230000002 cycles: 89653229 heartbeat IPC: 0.804 cumulative IPC: 0.7958 (Simulation time: 01 hr 52 min 42 sec)
Heartbeat CPU 3 instructions: 230000003 cycles: 90749163 heartbeat IPC: 0.5769 cumulative IPC: 0.5719 (Simulation time: 01 hr 53 min 42 sec)
Heartbeat CPU 5 instructions: 290000001 cycles: 90854509 heartbeat IPC: 2.11 cumulative IPC: 2.113 (Simulation time: 01 hr 53 min 48 sec)
Heartbeat CPU 6 instructions: 330000002 cycles: 91502660 heartbeat IPC: 3.191 cumulative IPC: 3.09 (Simulation time: 01 hr 54 min 24 sec)
Heartbeat CPU 7 instructions: 230000001 cycles: 91537067 heartbeat IPC: 0.5667 cumulative IPC: 0.5609 (Simulation time: 01 hr 54 min 26 sec)
Heartbeat CPU 4 instructions: 230000003 cycles: 91578240 heartbeat IPC: 0.5864 cumulative IPC: 0.5606 (Simulation time: 01 hr 54 min 29 sec)
Heartbeat CPU 6 instructions: 340000002 cycles: 94585210 heartbeat IPC: 3.244 cumulative IPC: 3.101 (Simulation time: 01 hr 57 min 16 sec)
Heartbeat CPU 1 instructions: 290000000 cycles: 94745070 heartbeat IPC: 1.875 cumulative IPC: 1.921 (Simulation time: 01 hr 57 min 25 sec)
Heartbeat CPU 5 instructions: 300000001 cycles: 95593253 heartbeat IPC: 2.11 cumulative IPC: 2.113 (Simulation time: 01 hr 58 min 12 sec)
Heartbeat CPU 0 instructions: 250000002 cycles: 95810814 heartbeat IPC: 0.9877 cumulative IPC: 0.9618 (Simulation time: 01 hr 58 min 24 sec)
Heartbeat CPU 6 instructions: 350000001 cycles: 97862096 heartbeat IPC: 3.052 cumulative IPC: 3.097 (Simulation time: 02 hr 00 min 15 sec)
Heartbeat CPU 1 instructions: 300000003 cycles: 100094059 heartbeat IPC: 1.87 cumulative IPC: 1.915 (Simulation time: 02 hr 02 min 17 sec)
Heartbeat CPU 5 instructions: 310000001 cycles: 100311481 heartbeat IPC: 2.119 cumulative IPC: 2.114 (Simulation time: 02 hr 02 min 29 sec)
Heartbeat CPU 6 instructions: 360000003 cycles: 101232581 heartbeat IPC: 2.967 cumulative IPC: 3.089 (Simulation time: 02 hr 03 min 19 sec)
Heartbeat CPU 2 instructions: 240000002 cycles: 102320744 heartbeat IPC: 0.7894 cumulative IPC: 0.7942 (Simulation time: 02 hr 04 min 18 sec)
Heartbeat CPU 6 instructions: 370000000 cycles: 104159960 heartbeat IPC: 3.416 cumulative IPC: 3.107 (Simulation time: 02 hr 06 min 02 sec)
Heartbeat CPU 5 instructions: 320000001 cycles: 105070685 heartbeat IPC: 2.101 cumulative IPC: 2.113 (Simulation time: 02 hr 06 min 54 sec)
Heartbeat CPU 1 instructions: 310000000 cycles: 105545160 heartbeat IPC: 1.834 cumulative IPC: 1.907 (Simulation time: 02 hr 07 min 20 sec)
Heartbeat CPU 0 instructions: 260000002 cycles: 105850861 heartbeat IPC: 0.996 cumulative IPC: 0.9682 (Simulation time: 02 hr 07 min 37 sec)
Heartbeat CPU 6 instructions: 380000000 cycles: 107218956 heartbeat IPC: 3.269 cumulative IPC: 3.116 (Simulation time: 02 hr 08 min 52 sec)
Heartbeat CPU 3 instructions: 240000003 cycles: 108007021 heartbeat IPC: 0.5794 cumulative IPC: 0.5742 (Simulation time: 02 hr 09 min 35 sec)
Heartbeat CPU 4 instructions: 240000003 cycles: 108884984 heartbeat IPC: 0.5778 cumulative IPC: 0.5658 (Simulation time: 02 hr 10 min 23 sec)
Heartbeat CPU 7 instructions: 240000001 cycles: 109007345 heartbeat IPC: 0.5724 cumulative IPC: 0.5644 (Simulation time: 02 hr 10 min 29 sec)
Heartbeat CPU 5 instructions: 330000000 cycles: 109804739 heartbeat IPC: 2.112 cumulative IPC: 2.112 (Simulation time: 02 hr 11 min 13 sec)
Heartbeat CPU 6 instructions: 390000002 cycles: 110524909 heartbeat IPC: 3.025 cumulative IPC: 3.111 (Simulation time: 02 hr 11 min 51 sec)
Heartbeat CPU 1 instructions: 320000003 cycles: 111070010 heartbeat IPC: 1.81 cumulative IPC: 1.898 (Simulation time: 02 hr 12 min 20 sec)
Heartbeat CPU 6 instructions: 400000001 cycles: 113721736 heartbeat IPC: 3.128 cumulative IPC: 3.112 (Simulation time: 02 hr 14 min 42 sec)
Heartbeat CPU 2 instructions: 250000001 cycles: 115023687 heartbeat IPC: 0.7872 cumulative IPC: 0.7928 (Simulation time: 02 hr 15 min 52 sec)
Heartbeat CPU 0 instructions: 270000003 cycles: 115768975 heartbeat IPC: 1.008 cumulative IPC: 0.9744 (Simulation time: 02 hr 16 min 34 sec)
Heartbeat CPU 5 instructions: 340000003 cycles: 115910848 heartbeat IPC: 1.638 cumulative IPC: 2.067 (Simulation time: 02 hr 16 min 42 sec)
Simulation finished CPU 6 instructions: 200000001 cycles: 64207827 cumulative IPC: 3.115 (Simulation time: 02 hr 16 min 56 sec)
Heartbeat CPU 6 instructions: 410000000 cycles: 116886897 heartbeat IPC: 3.159 cumulative IPC: 3.114 (Simulation time: 02 hr 17 min 35 sec)
Heartbeat CPU 1 instructions: 330000003 cycles: 117158636 heartbeat IPC: 1.642 cumulative IPC: 1.874 (Simulation time: 02 hr 17 min 50 sec)
Heartbeat CPU 6 instructions: 420000001 cycles: 120036003 heartbeat IPC: 3.176 cumulative IPC: 3.117 (Simulation time: 02 hr 20 min 31 sec)
Heartbeat CPU 5 instructions: 350000000 cycles: 121022011 heartbeat IPC: 1.957 cumulative IPC: 2.059 (Simulation time: 02 hr 21 min 27 sec)
Heartbeat CPU 1 instructions: 340000001 cycles: 122288731 heartbeat IPC: 1.949 cumulative IPC: 1.879 (Simulation time: 02 hr 22 min 39 sec)
Heartbeat CPU 6 instructions: 430000001 cycles: 123081651 heartbeat IPC: 3.283 cumulative IPC: 3.124 (Simulation time: 02 hr 23 min 23 sec)
Heartbeat CPU 5 instructions: 360000001 cycles: 125918702 heartbeat IPC: 2.042 cumulative IPC: 2.058 (Simulation time: 02 hr 26 min 01 sec)
Heartbeat CPU 3 instructions: 250000003 cycles: 126256172 heartbeat IPC: 0.548 cumulative IPC: 0.5678 (Simulation time: 02 hr 26 min 21 sec)
Heartbeat CPU 0 instructions: 280000000 cycles: 126360604 heartbeat IPC: 0.9441 cumulative IPC: 0.9701 (Simulation time: 02 hr 26 min 27 sec)
Heartbeat CPU 6 instructions: 440000000 cycles: 126442976 heartbeat IPC: 2.975 cumulative IPC: 3.117 (Simulation time: 02 hr 26 min 31 sec)
Heartbeat CPU 1 instructions: 350000002 cycles: 127459320 heartbeat IPC: 1.934 cumulative IPC: 1.883 (Simulation time: 02 hr 27 min 30 sec)
Heartbeat CPU 7 instructions: 250000003 cycles: 127760000 heartbeat IPC: 0.5333 cumulative IPC: 0.5567 (Simulation time: 02 hr 27 min 48 sec)
Heartbeat CPU 2 instructions: 260000001 cycles: 127767707 heartbeat IPC: 0.7847 cumulative IPC: 0.7914 (Simulation time: 02 hr 27 min 48 sec)
Heartbeat CPU 4 instructions: 250000000 cycles: 128455446 heartbeat IPC: 0.511 cumulative IPC: 0.5518 (Simulation time: 02 hr 28 min 28 sec)
Heartbeat CPU 6 instructions: 450000003 cycles: 129250437 heartbeat IPC: 3.562 cumulative IPC: 3.133 (Simulation time: 02 hr 29 min 13 sec)
Heartbeat CPU 5 instructions: 370000003 cycles: 130745112 heartbeat IPC: 2.072 cumulative IPC: 2.059 (Simulation time: 02 hr 30 min 37 sec)
Heartbeat CPU 6 instructions: 460000003 cycles: 132510480 heartbeat IPC: 3.067 cumulative IPC: 3.131 (Simulation time: 02 hr 32 min 18 sec)
Heartbeat CPU 1 instructions: 360000000 cycles: 132560085 heartbeat IPC: 1.96 cumulative IPC: 1.888 (Simulation time: 02 hr 32 min 20 sec)
Heartbeat CPU 5 instructions: 380000001 cycles: 135558788 heartbeat IPC: 2.077 cumulative IPC: 2.06 (Simulation time: 02 hr 34 min 58 sec)
Heartbeat CPU 0 instructions: 290000001 cycles: 137271982 heartbeat IPC: 0.9165 cumulative IPC: 0.9632 (Simulation time: 02 hr 36 min 20 sec)
Heartbeat CPU 1 instructions: 370000003 cycles: 137797161 heartbeat IPC: 1.909 cumulative IPC: 1.889 (Simulation time: 02 hr 36 min 43 sec)
Heartbeat CPU 2 instructions: 270000001 cycles: 141276890 heartbeat IPC: 0.7402 cumulative IPC: 0.7837 (Simulation time: 02 hr 39 min 19 sec)
Heartbeat CPU 1 instructions: 380000000 cycles: 143086084 heartbeat IPC: 1.891 cumulative IPC: 1.889 (Simulation time: 02 hr 40 min 40 sec)
Heartbeat CPU 6 instructions: 470000000 cycles: 146870172 heartbeat IPC: 0.6964 cumulative IPC: 2.762 (Simulation time: 02 hr 43 min 26 sec)
Heartbeat CPU 1 instructions: 390000000 cycles: 148411101 heartbeat IPC: 1.878 cumulative IPC: 1.889 (Simulation time: 02 hr 44 min 36 sec)
Heartbeat CPU 3 instructions: 260000001 cycles: 149784508 heartbeat IPC: 0.425 cumulative IPC: 0.5334 (Simulation time: 02 hr 45 min 35 sec)
Heartbeat CPU 0 instructions: 300000002 cycles: 150070608 heartbeat IPC: 0.7813 cumulative IPC: 0.9395 (Simulation time: 02 hr 45 min 47 sec)
Heartbeat CPU 7 instructions: 260000001 cycles: 152757722 heartbeat IPC: 0.4 cumulative IPC: 0.5179 (Simulation time: 02 hr 47 min 49 sec)
Heartbeat CPU 4 instructions: 260000002 cycles: 152759080 heartbeat IPC: 0.4115 cumulative IPC: 0.5179 (Simulation time: 02 hr 47 min 49 sec)
Heartbeat CPU 5 instructions: 390000001 cycles: 153113276 heartbeat IPC: 0.5697 cumulative IPC: 1.801 (Simulation time: 02 hr 48 min 07 sec)
Heartbeat CPU 1 instructions: 400000000 cycles: 153657993 heartbeat IPC: 1.906 cumulative IPC: 1.89 (Simulation time: 02 hr 48 min 38 sec)
Heartbeat CPU 6 instructions: 480000002 cycles: 156231552 heartbeat IPC: 1.068 cumulative IPC: 2.61 (Simulation time: 02 hr 50 min 54 sec)
Simulation finished CPU 1 instructions: 200000001 cycles: 105738864 cumulative IPC: 1.891 (Simulation time: 02 hr 52 min 15 sec)
Heartbeat CPU 5 instructions: 400000002 cycles: 157699793 heartbeat IPC: 2.18 cumulative IPC: 1.818 (Simulation time: 02 hr 52 min 15 sec)
Heartbeat CPU 2 instructions: 280000002 cycles: 158073356 heartbeat IPC: 0.5954 cumulative IPC: 0.7539 (Simulation time: 02 hr 52 min 36 sec)
Heartbeat CPU 1 instructions: 410000000 cycles: 158845657 heartbeat IPC: 1.928 cumulative IPC: 1.891 (Simulation time: 02 hr 53 min 20 sec)
Heartbeat CPU 6 instructions: 490000002 cycles: 160376949 heartbeat IPC: 2.412 cumulative IPC: 2.603 (Simulation time: 02 hr 54 min 40 sec)
Heartbeat CPU 0 instructions: 310000002 cycles: 161384351 heartbeat IPC: 0.8839 cumulative IPC: 0.9338 (Simulation time: 02 hr 55 min 35 sec)
Simulation finished CPU 5 instructions: 200000001 cycles: 109576378 cumulative IPC: 1.825 (Simulation time: 02 hr 55 min 44 sec)
Heartbeat CPU 5 instructions: 410000002 cycles: 162495331 heartbeat IPC: 2.085 cumulative IPC: 1.829 (Simulation time: 02 hr 56 min 35 sec)
Heartbeat CPU 1 instructions: 420000003 cycles: 164107101 heartbeat IPC: 1.901 cumulative IPC: 1.892 (Simulation time: 02 hr 58 min 02 sec)
Heartbeat CPU 6 instructions: 500000000 cycles: 164849816 heartbeat IPC: 2.236 cumulative IPC: 2.588 (Simulation time: 02 hr 58 min 41 sec)
Heartbeat CPU 5 instructions: 420000002 cycles: 167474051 heartbeat IPC: 2.009 cumulative IPC: 1.837 (Simulation time: 03 hr 01 min 02 sec)
Heartbeat CPU 3 instructions: 270000002 cycles: 169076308 heartbeat IPC: 0.5184 cumulative IPC: 0.531 (Simulation time: 03 hr 02 min 19 sec)
Heartbeat CPU 1 instructions: 430000002 cycles: 169314240 heartbeat IPC: 1.92 cumulative IPC: 1.893 (Simulation time: 03 hr 02 min 30 sec)
Heartbeat CPU 7 instructions: 270000002 cycles: 171233619 heartbeat IPC: 0.5412 cumulative IPC: 0.5215 (Simulation time: 03 hr 04 min 06 sec)
Heartbeat CPU 2 instructions: 290000000 cycles: 171471277 heartbeat IPC: 0.7464 cumulative IPC: 0.753 (Simulation time: 03 hr 04 min 19 sec)
Heartbeat CPU 0 instructions: 320000002 cycles: 171718370 heartbeat IPC: 0.9677 cumulative IPC: 0.9367 (Simulation time: 03 hr 04 min 31 sec)
Heartbeat CPU 5 instructions: 430000003 cycles: 172353777 heartbeat IPC: 2.049 cumulative IPC: 1.846 (Simulation time: 03 hr 05 min 05 sec)
Heartbeat CPU 4 instructions: 270000002 cycles: 173481316 heartbeat IPC: 0.4826 cumulative IPC: 0.5119 (Simulation time: 03 hr 06 min 00 sec)
Heartbeat CPU 1 instructions: 440000003 cycles: 174466478 heartbeat IPC: 1.941 cumulative IPC: 1.895 (Simulation time: 03 hr 06 min 49 sec)
Heartbeat CPU 5 instructions: 440000002 cycles: 177373952 heartbeat IPC: 1.992 cumulative IPC: 1.851 (Simulation time: 03 hr 09 min 15 sec)
Heartbeat CPU 6 instructions: 510000003 cycles: 178902982 heartbeat IPC: 0.7116 cumulative IPC: 2.38 (Simulation time: 03 hr 10 min 28 sec)
Heartbeat CPU 1 instructions: 450000000 cycles: 179665290 heartbeat IPC: 1.924 cumulative IPC: 1.896 (Simulation time: 03 hr 11 min 04 sec)
Heartbeat CPU 0 instructions: 330000000 cycles: 182526309 heartbeat IPC: 0.9252 cumulative IPC: 0.9357 (Simulation time: 03 hr 13 min 19 sec)
Heartbeat CPU 5 instructions: 450000001 cycles: 182660504 heartbeat IPC: 1.892 cumulative IPC: 1.853 (Simulation time: 03 hr 13 min 25 sec)
Heartbeat CPU 1 instructions: 460000001 cycles: 184937584 heartbeat IPC: 1.897 cumulative IPC: 1.896 (Simulation time: 03 hr 15 min 15 sec)
Heartbeat CPU 2 instructions: 300000001 cycles: 185035507 heartbeat IPC: 0.7372 cumulative IPC: 0.7514 (Simulation time: 03 hr 15 min 20 sec)
Heartbeat CPU 3 instructions: 280000003 cycles: 186079663 heartbeat IPC: 0.5881 cumulative IPC: 0.5382 (Simulation time: 03 hr 16 min 09 sec)
Heartbeat CPU 5 instructions: 460000002 cycles: 187615878 heartbeat IPC: 2.018 cumulative IPC: 1.859 (Simulation time: 03 hr 17 min 21 sec)
Heartbeat CPU 7 instructions: 280000003 cycles: 188866102 heartbeat IPC: 0.5671 cumulative IPC: 0.5274 (Simulation time: 03 hr 18 min 22 sec)
Heartbeat CPU 1 instructions: 470000001 cycles: 190081951 heartbeat IPC: 1.944 cumulative IPC: 1.898 (Simulation time: 03 hr 19 min 22 sec)
Heartbeat CPU 5 instructions: 470000002 cycles: 192429856 heartbeat IPC: 2.077 cumulative IPC: 1.867 (Simulation time: 03 hr 21 min 23 sec)
Heartbeat CPU 0 instructions: 340000002 cycles: 192777134 heartbeat IPC: 0.9755 cumulative IPC: 0.9386 (Simulation time: 03 hr 21 min 40 sec)
Heartbeat CPU 4 instructions: 280000003 cycles: 193342442 heartbeat IPC: 0.5035 cumulative IPC: 0.5107 (Simulation time: 03 hr 22 min 10 sec)
Heartbeat CPU 6 instructions: 520000003 cycles: 193568415 heartbeat IPC: 0.6819 cumulative IPC: 2.205 (Simulation time: 03 hr 22 min 21 sec)
Heartbeat CPU 1 instructions: 480000003 cycles: 195242889 heartbeat IPC: 1.938 cumulative IPC: 1.9 (Simulation time: 03 hr 23 min 47 sec)
Heartbeat CPU 5 instructions: 480000003 cycles: 197598536 heartbeat IPC: 1.935 cumulative IPC: 1.869 (Simulation time: 03 hr 25 min 50 sec)
Heartbeat CPU 2 instructions: 310000001 cycles: 198384305 heartbeat IPC: 0.7491 cumulative IPC: 0.7512 (Simulation time: 03 hr 26 min 30 sec)
Heartbeat CPU 6 instructions: 530000003 cycles: 199108994 heartbeat IPC: 1.805 cumulative IPC: 2.19 (Simulation time: 03 hr 27 min 08 sec)
Heartbeat CPU 1 instructions: 490000002 cycles: 200394646 heartbeat IPC: 1.941 cumulative IPC: 1.901 (Simulation time: 03 hr 28 min 15 sec)
Heartbeat CPU 0 instructions: 350000000 cycles: 203183510 heartbeat IPC: 0.9609 cumulative IPC: 0.9402 (Simulation time: 03 hr 30 min 16 sec)
Heartbeat CPU 1 instructions: 500000000 cycles: 205608260 heartbeat IPC: 1.918 cumulative IPC: 1.902 (Simulation time: 03 hr 32 min 07 sec)
Heartbeat CPU 5 instructions: 490000000 cycles: 206004314 heartbeat IPC: 1.19 cumulative IPC: 1.832 (Simulation time: 03 hr 32 min 25 sec)
Heartbeat CPU 3 instructions: 290000001 cycles: 206289007 heartbeat IPC: 0.4948 cumulative IPC: 0.5325 (Simulation time: 03 hr 32 min 38 sec)
Heartbeat CPU 7 instructions: 290000003 cycles: 209808267 heartbeat IPC: 0.4775 cumulative IPC: 0.5207 (Simulation time: 03 hr 35 min 21 sec)
Heartbeat CPU 1 instructions: 510000001 cycles: 210855880 heartbeat IPC: 1.906 cumulative IPC: 1.902 (Simulation time: 03 hr 36 min 09 sec)
Heartbeat CPU 2 instructions: 320000002 cycles: 212768670 heartbeat IPC: 0.6952 cumulative IPC: 0.7462 (Simulation time: 03 hr 37 min 38 sec)
Heartbeat CPU 5 instructions: 500000001 cycles: 213272201 heartbeat IPC: 1.376 cumulative IPC: 1.811 (Simulation time: 03 hr 38 min 01 sec)
Heartbeat CPU 6 instructions: 540000000 cycles: 213481293 heartbeat IPC: 0.6958 cumulative IPC: 2.057 (Simulation time: 03 hr 38 min 11 sec)
Heartbeat CPU 0 instructions: 360000002 cycles: 214246206 heartbeat IPC: 0.9039 cumulative IPC: 0.9377 (Simulation time: 03 hr 38 min 47 sec)
Heartbeat CPU 4 instructions: 290000000 cycles: 214409357 heartbeat IPC: 0.4747 cumulative IPC: 0.5061 (Simulation time: 03 hr 38 min 54 sec)
Heartbeat CPU 1 instructions: 520000001 cycles: 216161487 heartbeat IPC: 1.885 cumulative IPC: 1.901 (Simulation time: 03 hr 40 min 14 sec)
Heartbeat CPU 5 instructions: 510000003 cycles: 220128178 heartbeat IPC: 1.459 cumulative IPC: 1.797 (Simulation time: 03 hr 43 min 20 sec)
Heartbeat CPU 1 instructions: 530000000 cycles: 221435249 heartbeat IPC: 1.896 cumulative IPC: 1.901 (Simulation time: 03 hr 44 min 21 sec)
Heartbeat CPU 0 instructions: 370000001 cycles: 225565630 heartbeat IPC: 0.8834 cumulative IPC: 0.9342 (Simulation time: 03 hr 47 min 32 sec)
Heartbeat CPU 1 instructions: 540000000 cycles: 226758655 heartbeat IPC: 1.878 cumulative IPC: 1.9 (Simulation time: 03 hr 48 min 27 sec)
Heartbeat CPU 2 instructions: 330000002 cycles: 226797524 heartbeat IPC: 0.7128 cumulative IPC: 0.7435 (Simulation time: 03 hr 48 min 29 sec)
Heartbeat CPU 5 instructions: 520000000 cycles: 227138855 heartbeat IPC: 1.426 cumulative IPC: 1.782 (Simulation time: 03 hr 48 min 45 sec)
Heartbeat CPU 3 instructions: 300000001 cycles: 227363254 heartbeat IPC: 0.4745 cumulative IPC: 0.5256 (Simulation time: 03 hr 48 min 55 sec)
Heartbeat CPU 6 instructions: 550000001 cycles: 231117912 heartbeat IPC: 0.567 cumulative IPC: 1.91 (Simulation time: 03 hr 51 min 48 sec)
Heartbeat CPU 7 instructions: 300000001 cycles: 231270245 heartbeat IPC: 0.4659 cumulative IPC: 0.5142 (Simulation time: 03 hr 51 min 55 sec)
Heartbeat CPU 1 instructions: 550000002 cycles: 232096879 heartbeat IPC: 1.873 cumulative IPC: 1.9 (Simulation time: 03 hr 52 min 37 sec)
Heartbeat CPU 5 instructions: 530000001 cycles: 233925967 heartbeat IPC: 1.473 cumulative IPC: 1.771 (Simulation time: 03 hr 54 min 09 sec)
Heartbeat CPU 6 instructions: 560000000 cycles: 235840512 heartbeat IPC: 2.117 cumulative IPC: 1.915 (Simulation time: 03 hr 55 min 46 sec)
Heartbeat CPU 0 instructions: 380000003 cycles: 235959747 heartbeat IPC: 0.9621 cumulative IPC: 0.9357 (Simulation time: 03 hr 55 min 52 sec)
Heartbeat CPU 4 instructions: 300000000 cycles: 236129168 heartbeat IPC: 0.4604 cumulative IPC: 0.5007 (Simulation time: 03 hr 56 min 01 sec)
Heartbeat CPU 1 instructions: 560000002 cycles: 237452372 heartbeat IPC: 1.867 cumulative IPC: 1.899 (Simulation time: 03 hr 57 min 08 sec)
Heartbeat CPU 6 instructions: 570000002 cycles: 240222190 heartbeat IPC: 2.282 cumulative IPC: 1.924 (Simulation time: 03 hr 59 min 28 sec)
Heartbeat CPU 5 instructions: 540000001 cycles: 240500161 heartbeat IPC: 1.521 cumulative IPC: 1.762 (Simulation time: 03 hr 59 min 43 sec)
Heartbeat CPU 2 instructions: 340000003 cycles: 241068846 heartbeat IPC: 0.7007 cumulative IPC: 0.7403 (Simulation time: 04 hr 00 min 11 sec)
Heartbeat CPU 1 instructions: 570000000 cycles: 242670053 heartbeat IPC: 1.917 cumulative IPC: 1.899 (Simulation time: 04 hr 01 min 31 sec)
Heartbeat CPU 6 instructions: 580000003 cycles: 245067306 heartbeat IPC: 2.064 cumulative IPC: 1.927 (Simulation time: 04 hr 03 min 33 sec)
Heartbeat CPU 0 instructions: 390000000 cycles: 246570811 heartbeat IPC: 0.9424 cumulative IPC: 0.9361 (Simulation time: 04 hr 04 min 49 sec)
Heartbeat CPU 5 instructions: 550000000 cycles: 246998460 heartbeat IPC: 1.539 cumulative IPC: 1.755 (Simulation time: 04 hr 05 min 10 sec)
Heartbeat CPU 1 instructions: 580000003 cycles: 247900264 heartbeat IPC: 1.912 cumulative IPC: 1.899 (Simulation time: 04 hr 05 min 55 sec)
Heartbeat CPU 3 instructions: 310000003 cycles: 247902701 heartbeat IPC: 0.4869 cumulative IPC: 0.5215 (Simulation time: 04 hr 05 min 55 sec)
Heartbeat CPU 6 instructions: 590000002 cycles: 250081509 heartbeat IPC: 1.994 cumulative IPC: 1.929 (Simulation time: 04 hr 07 min 45 sec)
Heartbeat CPU 7 instructions: 310000001 cycles: 252024293 heartbeat IPC: 0.4818 cumulative IPC: 0.5108 (Simulation time: 04 hr 09 min 23 sec)
Heartbeat CPU 1 instructions: 590000002 cycles: 253220812 heartbeat IPC: 1.88 cumulative IPC: 1.899 (Simulation time: 04 hr 10 min 18 sec)
Heartbeat CPU 5 instructions: 560000003 cycles: 253657172 heartbeat IPC: 1.502 cumulative IPC: 1.746 (Simulation time: 04 hr 10 min 38 sec)
Heartbeat CPU 2 instructions: 350000002 cycles: 254918100 heartbeat IPC: 0.7221 cumulative IPC: 0.739 (Simulation time: 04 hr 11 min 36 sec)
Heartbeat CPU 4 instructions: 310000001 cycles: 256264405 heartbeat IPC: 0.4966 cumulative IPC: 0.5003 (Simulation time: 04 hr 12 min 38 sec)
Heartbeat CPU 0 instructions: 400000003 cycles: 257154139 heartbeat IPC: 0.9449 cumulative IPC: 0.9366 (Simulation time: 04 hr 13 min 20 sec)
Heartbeat CPU 1 instructions: 600000001 cycles: 258515866 heartbeat IPC: 1.889 cumulative IPC: 1.899 (Simulation time: 04 hr 14 min 24 sec)
Heartbeat CPU 5 instructions: 570000001 cycles: 260517577 heartbeat IPC: 1.458 cumulative IPC: 1.737 (Simulation time: 04 hr 15 min 58 sec)
Heartbeat CPU 1 instructions: 610000000 cycles: 263810975 heartbeat IPC: 1.889 cumulative IPC: 1.898 (Simulation time: 04 hr 18 min 32 sec)
Heartbeat CPU 6 instructions: 600000003 cycles: 265905229 heartbeat IPC: 0.632 cumulative IPC: 1.833 (Simulation time: 04 hr 20 min 09 sec)
Simulation finished CPU 0 instructions: 200000000 cycles: 213979869 cumulative IPC: 0.9347 (Simulation time: 04 hr 20 min 11 sec)
Heartbeat CPU 5 instructions: 580000000 cycles: 267210489 heartbeat IPC: 1.494 cumulative IPC: 1.729 (Simulation time: 04 hr 21 min 12 sec)
Heartbeat CPU 0 instructions: 410000003 cycles: 268253756 heartbeat IPC: 0.9009 cumulative IPC: 0.9347 (Simulation time: 04 hr 22 min 01 sec)
Heartbeat CPU 3 instructions: 320000001 cycles: 268670413 heartbeat IPC: 0.4815 cumulative IPC: 0.5177 (Simulation time: 04 hr 22 min 21 sec)
Heartbeat CPU 2 instructions: 360000000 cycles: 268990344 heartbeat IPC: 0.7106 cumulative IPC: 0.7372 (Simulation time: 04 hr 22 min 36 sec)
Heartbeat CPU 1 instructions: 620000000 cycles: 269125354 heartbeat IPC: 1.882 cumulative IPC: 1.898 (Simulation time: 04 hr 22 min 42 sec)
Heartbeat CPU 7 instructions: 320000001 cycles: 273185350 heartbeat IPC: 0.4726 cumulative IPC: 0.5072 (Simulation time: 04 hr 25 min 54 sec)
Heartbeat CPU 5 instructions: 590000000 cycles: 274003581 heartbeat IPC: 1.472 cumulative IPC: 1.721 (Simulation time: 04 hr 26 min 32 sec)
Heartbeat CPU 1 instructions: 630000001 cycles: 274504315 heartbeat IPC: 1.859 cumulative IPC: 1.897 (Simulation time: 04 hr 26 min 55 sec)
Heartbeat CPU 4 instructions: 320000000 cycles: 277344985 heartbeat IPC: 0.4744 cumulative IPC: 0.4979 (Simulation time: 04 hr 29 min 08 sec)
Heartbeat CPU 0 instructions: 420000002 cycles: 278698197 heartbeat IPC: 0.9574 cumulative IPC: 0.9358 (Simulation time: 04 hr 30 min 10 sec)
Heartbeat CPU 1 instructions: 640000002 cycles: 279826094 heartbeat IPC: 1.879 cumulative IPC: 1.897 (Simulation time: 04 hr 31 min 02 sec)
Heartbeat CPU 5 instructions: 600000003 cycles: 280545135 heartbeat IPC: 1.529 cumulative IPC: 1.716 (Simulation time: 04 hr 31 min 37 sec)
Heartbeat CPU 2 instructions: 370000000 cycles: 283086593 heartbeat IPC: 0.7094 cumulative IPC: 0.7355 (Simulation time: 04 hr 33 min 34 sec)
Heartbeat CPU 6 instructions: 610000003 cycles: 285117708 heartbeat IPC: 0.5205 cumulative IPC: 1.725 (Simulation time: 04 hr 35 min 12 sec)
Heartbeat CPU 1 instructions: 650000002 cycles: 285122504 heartbeat IPC: 1.888 cumulative IPC: 1.896 (Simulation time: 04 hr 35 min 12 sec)
Heartbeat CPU 5 instructions: 610000001 cycles: 287141305 heartbeat IPC: 1.516 cumulative IPC: 1.71 (Simulation time: 04 hr 36 min 50 sec)
Heartbeat CPU 0 instructions: 430000003 cycles: 288301825 heartbeat IPC: 1.041 cumulative IPC: 0.9401 (Simulation time: 04 hr 37 min 45 sec)
Heartbeat CPU 3 instructions: 330000001 cycles: 289064367 heartbeat IPC: 0.4903 cumulative IPC: 0.5153 (Simulation time: 04 hr 38 min 20 sec)
Heartbeat CPU 1 instructions: 660000000 cycles: 290327546 heartbeat IPC: 1.921 cumulative IPC: 1.897 (Simulation time: 04 hr 39 min 17 sec)
Heartbeat CPU 7 instructions: 330000003 cycles: 295737784 heartbeat IPC: 0.4434 cumulative IPC: 0.5013 (Simulation time: 04 hr 43 min 13 sec)
Heartbeat CPU 1 instructions: 670000000 cycles: 295774248 heartbeat IPC: 1.836 cumulative IPC: 1.896 (Simulation time: 04 hr 43 min 14 sec)
Heartbeat CPU 2 instructions: 380000000 cycles: 298200705 heartbeat IPC: 0.6616 cumulative IPC: 0.731 (Simulation time: 04 hr 45 min 00 sec)
Heartbeat CPU 0 instructions: 440000002 cycles: 299403090 heartbeat IPC: 0.9008 cumulative IPC: 0.9383 (Simulation time: 04 hr 45 min 55 sec)
Heartbeat CPU 4 instructions: 330000003 cycles: 301011069 heartbeat IPC: 0.4225 cumulative IPC: 0.4907 (Simulation time: 04 hr 47 min 07 sec)
Heartbeat CPU 1 instructions: 680000003 cycles: 301027348 heartbeat IPC: 1.904 cumulative IPC: 1.896 (Simulation time: 04 hr 47 min 07 sec)
Heartbeat CPU 6 instructions: 620000002 cycles: 303523692 heartbeat IPC: 0.5433 cumulative IPC: 1.638 (Simulation time: 04 hr 49 min 00 sec)
Heartbeat CPU 1 instructions: 690000002 cycles: 306250472 heartbeat IPC: 1.915 cumulative IPC: 1.896 (Simulation time: 04 hr 51 min 02 sec)
Heartbeat CPU 1 instructions: 700000002 cycles: 311828220 heartbeat IPC: 1.793 cumulative IPC: 1.894 (Simulation time: 04 hr 55 min 05 sec)
Heartbeat CPU 0 instructions: 450000003 cycles: 311918955 heartbeat IPC: 0.799 cumulative IPC: 0.9316 (Simulation time: 04 hr 55 min 09 sec)
Heartbeat CPU 2 instructions: 390000001 cycles: 314115705 heartbeat IPC: 0.6283 cumulative IPC: 0.7247 (Simulation time: 04 hr 56 min 50 sec)
Heartbeat CPU 5 instructions: 620000001 cycles: 315979693 heartbeat IPC: 0.3468 cumulative IPC: 1.561 (Simulation time: 04 hr 58 min 14 sec)
Heartbeat CPU 3 instructions: 340000003 cycles: 316253822 heartbeat IPC: 0.3678 cumulative IPC: 0.5001 (Simulation time: 04 hr 58 min 27 sec)
Heartbeat CPU 6 instructions: 630000002 cycles: 317388240 heartbeat IPC: 0.7213 cumulative IPC: 1.591 (Simulation time: 04 hr 59 min 16 sec)
Heartbeat CPU 1 instructions: 710000000 cycles: 318132998 heartbeat IPC: 1.586 cumulative IPC: 1.887 (Simulation time: 04 hr 59 min 49 sec)
Heartbeat CPU 1 instructions: 720000001 cycles: 323502562 heartbeat IPC: 1.862 cumulative IPC: 1.886 (Simulation time: 05 hr 03 min 49 sec)
Heartbeat CPU 7 instructions: 340000001 cycles: 325055724 heartbeat IPC: 0.3411 cumulative IPC: 0.4841 (Simulation time: 05 hr 05 min 01 sec)
Heartbeat CPU 0 instructions: 460000000 cycles: 325449990 heartbeat IPC: 0.739 cumulative IPC: 0.9221 (Simulation time: 05 hr 05 min 18 sec)
Heartbeat CPU 1 instructions: 730000000 cycles: 328791414 heartbeat IPC: 1.891 cumulative IPC: 1.886 (Simulation time: 05 hr 07 min 42 sec)
Heartbeat CPU 4 instructions: 340000002 cycles: 329668511 heartbeat IPC: 0.3489 cumulative IPC: 0.4761 (Simulation time: 05 hr 08 min 21 sec)
Heartbeat CPU 2 instructions: 400000003 cycles: 332227458 heartbeat IPC: 0.5521 cumulative IPC: 0.7136 (Simulation time: 05 hr 10 min 17 sec)
Simulation finished CPU 2 instructions: 200000003 cycles: 280272804 cumulative IPC: 0.7136 (Simulation time: 05 hr 10 min 17 sec)
Heartbeat CPU 1 instructions: 740000001 cycles: 334055134 heartbeat IPC: 1.9 cumulative IPC: 1.887 (Simulation time: 05 hr 11 min 38 sec)
Heartbeat CPU 5 instructions: 630000002 cycles: 335155991 heartbeat IPC: 0.5215 cumulative IPC: 1.491 (Simulation time: 05 hr 12 min 28 sec)
Heartbeat CPU 0 instructions: 470000003 cycles: 337149135 heartbeat IPC: 0.8548 cumulative IPC: 0.9193 (Simulation time: 05 hr 14 min 00 sec)
Heartbeat CPU 6 instructions: 640000002 cycles: 337427488 heartbeat IPC: 0.499 cumulative IPC: 1.514 (Simulation time: 05 hr 14 min 13 sec)
Heartbeat CPU 1 instructions: 750000000 cycles: 339318201 heartbeat IPC: 1.9 cumulative IPC: 1.887 (Simulation time: 05 hr 15 min 40 sec)
Heartbeat CPU 3 instructions: 350000000 cycles: 343489482 heartbeat IPC: 0.3672 cumulative IPC: 0.4877 (Simulation time: 05 hr 18 min 55 sec)
Heartbeat CPU 1 instructions: 760000002 cycles: 344516433 heartbeat IPC: 1.924 cumulative IPC: 1.887 (Simulation time: 05 hr 19 min 41 sec)
Heartbeat CPU 2 instructions: 410000002 cycles: 346995805 heartbeat IPC: 0.6771 cumulative IPC: 0.7118 (Simulation time: 05 hr 21 min 40 sec)
Heartbeat CPU 5 instructions: 640000001 cycles: 347640154 heartbeat IPC: 0.801 cumulative IPC: 1.462 (Simulation time: 05 hr 22 min 10 sec)
Heartbeat CPU 0 instructions: 480000001 cycles: 348262162 heartbeat IPC: 0.8998 cumulative IPC: 0.9186 (Simulation time: 05 hr 22 min 38 sec)
Heartbeat CPU 7 instructions: 350000002 cycles: 349581561 heartbeat IPC: 0.4077 cumulative IPC: 0.4778 (Simulation time: 05 hr 23 min 41 sec)
Heartbeat CPU 1 instructions: 770000000 cycles: 349729625 heartbeat IPC: 1.918 cumulative IPC: 1.888 (Simulation time: 05 hr 23 min 47 sec)
Heartbeat CPU 4 instructions: 350000002 cycles: 353445197 heartbeat IPC: 0.4206 cumulative IPC: 0.4717 (Simulation time: 05 hr 26 min 35 sec)
Heartbeat CPU 1 instructions: 780000000 cycles: 354985729 heartbeat IPC: 1.903 cumulative IPC: 1.888 (Simulation time: 05 hr 27 min 43 sec)
Heartbeat CPU 6 instructions: 650000003 cycles: 359440281 heartbeat IPC: 0.4543 cumulative IPC: 1.438 (Simulation time: 05 hr 31 min 10 sec)
Heartbeat CPU 0 instructions: 490000002 cycles: 359593995 heartbeat IPC: 0.8825 cumulative IPC: 0.9172 (Simulation time: 05 hr 31 min 18 sec)
Heartbeat CPU 1 instructions: 790000002 cycles: 360349875 heartbeat IPC: 1.864 cumulative IPC: 1.888 (Simulation time: 05 hr 31 min 53 sec)
Heartbeat CPU 2 instructions: 420000002 cycles: 361853138 heartbeat IPC: 0.6731 cumulative IPC: 0.7099 (Simulation time: 05 hr 33 min 00 sec)
Heartbeat CPU 1 instructions: 800000003 cycles: 365830923 heartbeat IPC: 1.824 cumulative IPC: 1.887 (Simulation time: 05 hr 35 min 59 sec)
Heartbeat CPU 5 instructions: 650000000 cycles: 365983747 heartbeat IPC: 0.5451 cumulative IPC: 1.408 (Simulation time: 05 hr 36 min 06 sec)
Heartbeat CPU 3 instructions: 360000002 cycles: 366800770 heartbeat IPC: 0.429 cumulative IPC: 0.4834 (Simulation time: 05 hr 36 min 44 sec)
Heartbeat CPU 0 instructions: 500000002 cycles: 370541750 heartbeat IPC: 0.9134 cumulative IPC: 0.9171 (Simulation time: 05 hr 39 min 35 sec)
Heartbeat CPU 1 instructions: 810000002 cycles: 371110485 heartbeat IPC: 1.894 cumulative IPC: 1.887 (Simulation time: 05 hr 40 min 04 sec)
Heartbeat CPU 7 instructions: 360000002 cycles: 372856865 heartbeat IPC: 0.4296 cumulative IPC: 0.4743 (Simulation time: 05 hr 41 min 24 sec)
Heartbeat CPU 2 instructions: 430000003 cycles: 375943381 heartbeat IPC: 0.7097 cumulative IPC: 0.7099 (Simulation time: 05 hr 43 min 46 sec)
Heartbeat CPU 4 instructions: 360000000 cycles: 375957594 heartbeat IPC: 0.4442 cumulative IPC: 0.4698 (Simulation time: 05 hr 43 min 46 sec)
Heartbeat CPU 1 instructions: 820000000 cycles: 376339910 heartbeat IPC: 1.912 cumulative IPC: 1.887 (Simulation time: 05 hr 44 min 04 sec)
Heartbeat CPU 6 instructions: 660000000 cycles: 378004345 heartbeat IPC: 0.5387 cumulative IPC: 1.387 (Simulation time: 05 hr 45 min 22 sec)
Heartbeat CPU 5 instructions: 660000000 cycles: 378759654 heartbeat IPC: 0.7827 cumulative IPC: 1.384 (Simulation time: 05 hr 45 min 58 sec)
Heartbeat CPU 0 instructions: 510000002 cycles: 380792883 heartbeat IPC: 0.9755 cumulative IPC: 0.9189 (Simulation time: 05 hr 47 min 36 sec)
Heartbeat CPU 1 instructions: 830000001 cycles: 381682019 heartbeat IPC: 1.872 cumulative IPC: 1.887 (Simulation time: 05 hr 48 min 19 sec)
Heartbeat CPU 1 instructions: 840000001 cycles: 386977261 heartbeat IPC: 1.888 cumulative IPC: 1.887 (Simulation time: 05 hr 52 min 34 sec)
Heartbeat CPU 6 instructions: 670000001 cycles: 387067575 heartbeat IPC: 1.103 cumulative IPC: 1.379 (Simulation time: 05 hr 52 min 38 sec)
Heartbeat CPU 3 instructions: 370000000 cycles: 388629392 heartbeat IPC: 0.4581 cumulative IPC: 0.4817 (Simulation time: 05 hr 53 min 51 sec)
Heartbeat CPU 2 instructions: 440000001 cycles: 390687714 heartbeat IPC: 0.6782 cumulative IPC: 0.7085 (Simulation time: 05 hr 55 min 23 sec)
Heartbeat CPU 0 instructions: 520000002 cycles: 392267586 heartbeat IPC: 0.8715 cumulative IPC: 0.9173 (Simulation time: 05 hr 56 min 34 sec)
Heartbeat CPU 1 instructions: 850000003 cycles: 392284229 heartbeat IPC: 1.884 cumulative IPC: 1.887 (Simulation time: 05 hr 56 min 35 sec)
Heartbeat CPU 5 instructions: 670000002 cycles: 392723456 heartbeat IPC: 0.7161 cumulative IPC: 1.356 (Simulation time: 05 hr 56 min 55 sec)
Heartbeat CPU 1 instructions: 860000000 cycles: 397670889 heartbeat IPC: 1.856 cumulative IPC: 1.886 (Simulation time: 06 hr 00 min 31 sec)
Heartbeat CPU 7 instructions: 370000002 cycles: 398173159 heartbeat IPC: 0.395 cumulative IPC: 0.4685 (Simulation time: 06 hr 00 min 54 sec)
Heartbeat CPU 4 instructions: 370000000 cycles: 401451326 heartbeat IPC: 0.3923 cumulative IPC: 0.4641 (Simulation time: 06 hr 03 min 19 sec)
Heartbeat CPU 1 instructions: 870000002 cycles: 403013496 heartbeat IPC: 1.872 cumulative IPC: 1.886 (Simulation time: 06 hr 04 min 27 sec)
Heartbeat CPU 0 instructions: 530000001 cycles: 404492312 heartbeat IPC: 0.818 cumulative IPC: 0.9139 (Simulation time: 06 hr 05 min 33 sec)
Heartbeat CPU 2 instructions: 450000000 cycles: 407439183 heartbeat IPC: 0.597 cumulative IPC: 0.7033 (Simulation time: 06 hr 07 min 42 sec)
Heartbeat CPU 1 instructions: 880000003 cycles: 408344601 heartbeat IPC: 1.876 cumulative IPC: 1.886 (Simulation time: 06 hr 08 min 22 sec)
Heartbeat CPU 1 instructions: 890000000 cycles: 413649067 heartbeat IPC: 1.885 cumulative IPC: 1.886 (Simulation time: 06 hr 12 min 21 sec)
Heartbeat CPU 0 instructions: 540000000 cycles: 415725701 heartbeat IPC: 0.8902 cumulative IPC: 0.9132 (Simulation time: 06 hr 13 min 54 sec)
Heartbeat CPU 3 instructions: 380000000 cycles: 417185369 heartbeat IPC: 0.3502 cumulative IPC: 0.4714 (Simulation time: 06 hr 14 min 57 sec)
Heartbeat CPU 1 instructions: 900000003 cycles: 419070683 heartbeat IPC: 1.844 cumulative IPC: 1.885 (Simulation time: 06 hr 16 min 15 sec)
Heartbeat CPU 6 instructions: 680000002 cycles: 422130486 heartbeat IPC: 0.2852 cumulative IPC: 1.276 (Simulation time: 06 hr 18 min 23 sec)
Heartbeat CPU 2 instructions: 460000000 cycles: 424588277 heartbeat IPC: 0.5831 cumulative IPC: 0.6977 (Simulation time: 06 hr 20 min 06 sec)
Heartbeat CPU 1 instructions: 910000000 cycles: 424726931 heartbeat IPC: 1.768 cumulative IPC: 1.884 (Simulation time: 06 hr 20 min 12 sec)
Heartbeat CPU 0 instructions: 550000001 cycles: 427118977 heartbeat IPC: 0.8777 cumulative IPC: 0.9121 (Simulation time: 06 hr 22 min 00 sec)
Heartbeat CPU 7 instructions: 380000000 cycles: 427307500 heartbeat IPC: 0.3432 cumulative IPC: 0.4588 (Simulation time: 06 hr 22 min 09 sec)
Heartbeat CPU 4 instructions: 380000000 cycles: 430355126 heartbeat IPC: 0.346 cumulative IPC: 0.4551 (Simulation time: 06 hr 24 min 26 sec)
Heartbeat CPU 1 instructions: 920000002 cycles: 430747706 heartbeat IPC: 1.661 cumulative IPC: 1.88 (Simulation time: 06 hr 24 min 44 sec)
Heartbeat CPU 5 instructions: 680000000 cycles: 430897795 heartbeat IPC: 0.262 cumulative IPC: 1.246 (Simulation time: 06 hr 24 min 51 sec)
Heartbeat CPU 1 instructions: 930000002 cycles: 436713025 heartbeat IPC: 1.676 cumulative IPC: 1.877 (Simulation time: 06 hr 29 min 20 sec)
Heartbeat CPU 0 instructions: 560000002 cycles: 438032730 heartbeat IPC: 0.9163 cumulative IPC: 0.9122 (Simulation time: 06 hr 30 min 23 sec)
Heartbeat CPU 2 instructions: 470000003 cycles: 439797069 heartbeat IPC: 0.6575 cumulative IPC: 0.6962 (Simulation time: 06 hr 31 min 47 sec)
Heartbeat CPU 5 instructions: 690000003 cycles: 441693183 heartbeat IPC: 0.9263 cumulative IPC: 1.237 (Simulation time: 06 hr 33 min 17 sec)
Heartbeat CPU 1 instructions: 940000000 cycles: 442104214 heartbeat IPC: 1.855 cumulative IPC: 1.877 (Simulation time: 06 hr 33 min 36 sec)
Heartbeat CPU 3 instructions: 390000000 cycles: 442335526 heartbeat IPC: 0.3976 cumulative IPC: 0.4667 (Simulation time: 06 hr 33 min 47 sec)
Heartbeat CPU 6 instructions: 690000001 cycles: 443757001 heartbeat IPC: 0.4624 cumulative IPC: 1.231 (Simulation time: 06 hr 34 min 54 sec)
Heartbeat CPU 6 instructions: 700000000 cycles: 447031394 heartbeat IPC: 3.054 cumulative IPC: 1.246 (Simulation time: 06 hr 37 min 50 sec)
Heartbeat CPU 1 instructions: 950000000 cycles: 447302187 heartbeat IPC: 1.924 cumulative IPC: 1.877 (Simulation time: 06 hr 38 min 04 sec)
Heartbeat CPU 0 instructions: 570000002 cycles: 448051568 heartbeat IPC: 0.9981 cumulative IPC: 0.9144 (Simulation time: 06 hr 38 min 44 sec)
Heartbeat CPU 7 instructions: 390000000 cycles: 449414360 heartbeat IPC: 0.4523 cumulative IPC: 0.4584 (Simulation time: 06 hr 39 min 59 sec)
Heartbeat CPU 6 instructions: 710000000 cycles: 450158001 heartbeat IPC: 3.198 cumulative IPC: 1.261 (Simulation time: 06 hr 40 min 39 sec)
Heartbeat CPU 4 instructions: 390000000 cycles: 451491033 heartbeat IPC: 0.4731 cumulative IPC: 0.4561 (Simulation time: 06 hr 41 min 52 sec)
Heartbeat CPU 1 instructions: 960000000 cycles: 452480410 heartbeat IPC: 1.931 cumulative IPC: 1.878 (Simulation time: 06 hr 42 min 46 sec)
Heartbeat CPU 2 instructions: 480000001 cycles: 452961990 heartbeat IPC: 0.7596 cumulative IPC: 0.6982 (Simulation time: 06 hr 43 min 11 sec)
Heartbeat CPU 5 instructions: 700000003 cycles: 453280129 heartbeat IPC: 0.863 cumulative IPC: 1.226 (Simulation time: 06 hr 43 min 28 sec)
Heartbeat CPU 6 instructions: 720000002 cycles: 453454545 heartbeat IPC: 3.033 cumulative IPC: 1.276 (Simulation time: 06 hr 43 min 36 sec)
Heartbeat CPU 6 instructions: 730000002 cycles: 456733858 heartbeat IPC: 3.049 cumulative IPC: 1.29 (Simulation time: 06 hr 46 min 31 sec)
Heartbeat CPU 1 instructions: 970000000 cycles: 457681090 heartbeat IPC: 1.923 cumulative IPC: 1.879 (Simulation time: 06 hr 47 min 22 sec)
Heartbeat CPU 0 instructions: 580000000 cycles: 458403806 heartbeat IPC: 0.966 cumulative IPC: 0.9157 (Simulation time: 06 hr 48 min 00 sec)
Heartbeat CPU 6 instructions: 740000002 cycles: 459995981 heartbeat IPC: 3.065 cumulative IPC: 1.304 (Simulation time: 06 hr 49 min 26 sec)
Heartbeat CPU 3 instructions: 400000002 cycles: 461561830 heartbeat IPC: 0.5201 cumulative IPC: 0.4692 (Simulation time: 06 hr 50 min 50 sec)
Heartbeat CPU 1 instructions: 980000002 cycles: 462886758 heartbeat IPC: 1.921 cumulative IPC: 1.879 (Simulation time: 06 hr 52 min 00 sec)
Heartbeat CPU 6 instructions: 750000000 cycles: 463191090 heartbeat IPC: 3.13 cumulative IPC: 1.318 (Simulation time: 06 hr 52 min 16 sec)
Heartbeat CPU 5 instructions: 710000001 cycles: 464094188 heartbeat IPC: 0.9247 cumulative IPC: 1.219 (Simulation time: 06 hr 53 min 04 sec)
Heartbeat CPU 2 instructions: 490000000 cycles: 466300999 heartbeat IPC: 0.7497 cumulative IPC: 0.6999 (Simulation time: 06 hr 55 min 00 sec)
Heartbeat CPU 6 instructions: 760000000 cycles: 466766640 heartbeat IPC: 2.797 cumulative IPC: 1.331 (Simulation time: 06 hr 55 min 25 sec)
Heartbeat CPU 1 instructions: 990000000 cycles: 468061305 heartbeat IPC: 1.933 cumulative IPC: 1.88 (Simulation time: 06 hr 56 min 33 sec)
Heartbeat CPU 7 instructions: 400000002 cycles: 469254321 heartbeat IPC: 0.504 cumulative IPC: 0.4606 (Simulation time: 06 hr 57 min 38 sec)
Heartbeat CPU 0 instructions: 590000001 cycles: 469478861 heartbeat IPC: 0.9029 cumulative IPC: 0.9154 (Simulation time: 06 hr 57 min 51 sec)
Heartbeat CPU 6 instructions: 770000002 cycles: 469889722 heartbeat IPC: 3.202 cumulative IPC: 1.345 (Simulation time: 06 hr 58 min 14 sec)
Heartbeat CPU 4 instructions: 400000002 cycles: 470574982 heartbeat IPC: 0.524 cumulative IPC: 0.4592 (Simulation time: 06 hr 58 min 52 sec)
Heartbeat CPU 6 instructions: 780000000 cycles: 472709433 heartbeat IPC: 3.546 cumulative IPC: 1.36 (Simulation time: 07 hr 00 min 49 sec)
Heartbeat CPU 1 instructions: 1000000000 cycles: 473199833 heartbeat IPC: 1.946 cumulative IPC: 1.881 (Simulation time: 07 hr 01 min 15 sec)
Heartbeat CPU 5 instructions: 720000003 cycles: 474024081 heartbeat IPC: 1.007 cumulative IPC: 1.214 (Simulation time: 07 hr 02 min 00 sec)
Heartbeat CPU 6 instructions: 790000000 cycles: 475967668 heartbeat IPC: 3.069 cumulative IPC: 1.373 (Simulation time: 07 hr 03 min 45 sec)
Simulation finished CPU 3 instructions: 200000000 cycles: 424827057 cumulative IPC: 0.4708 (Simulation time: 07 hr 04 min 29 sec)
Heartbeat CPU 1 instructions: 1010000000 cycles: 478372755 heartbeat IPC: 1.933 cumulative IPC: 1.881 (Simulation time: 07 hr 05 min 56 sec)
Heartbeat CPU 6 instructions: 800000001 cycles: 478781858 heartbeat IPC: 3.553 cumulative IPC: 1.387 (Simulation time: 07 hr 06 min 18 sec)
Heartbeat CPU 2 instructions: 500000001 cycles: 479491186 heartbeat IPC: 0.7581 cumulative IPC: 0.7017 (Simulation time: 07 hr 06 min 56 sec)
Heartbeat CPU 0 instructions: 600000003 cycles: 479680306 heartbeat IPC: 0.9803 cumulative IPC: 0.9169 (Simulation time: 07 hr 07 min 06 sec)
Heartbeat CPU 3 instructions: 410000002 cycles: 480944673 heartbeat IPC: 0.5159 cumulative IPC: 0.4713 (Simulation time: 07 hr 08 min 13 sec)
Heartbeat CPU 6 instructions: 810000000 cycles: 482230591 heartbeat IPC: 2.9 cumulative IPC: 1.4 (Simulation time: 07 hr 09 min 21 sec)
Heartbeat CPU 1 instructions: 1020000003 cycles: 483544061 heartbeat IPC: 1.934 cumulative IPC: 1.882 (Simulation time: 07 hr 10 min 31 sec)
Simulation finished CPU 7 instructions: 200000001 cycles: 432739468 cumulative IPC: 0.4622 (Simulation time: 07 hr 11 min 32 sec)
Heartbeat CPU 6 instructions: 820000002 cycles: 485302188 heartbeat IPC: 3.256 cumulative IPC: 1.413 (Simulation time: 07 hr 12 min 05 sec)
Simulation finished CPU 4 instructions: 200000001 cycles: 433570802 cumulative IPC: 0.4613 (Simulation time: 07 hr 12 min 17 sec)
Simulation complete CPU 0 instructions: 397434669 cycles: 433570802 cumulative IPC: 0.9167 (Simulation time: 07 hr 12 min 17 sec)
Simulation complete CPU 1 instructions: 816029032 cycles: 433570802 cumulative IPC: 1.882 (Simulation time: 07 hr 12 min 17 sec)
Simulation complete CPU 2 instructions: 304554301 cycles: 433570802 cumulative IPC: 0.7024 (Simulation time: 07 hr 12 min 17 sec)
Simulation complete CPU 3 instructions: 204552356 cycles: 433570802 cumulative IPC: 0.4718 (Simulation time: 07 hr 12 min 17 sec)
Simulation complete CPU 4 instructions: 200000001 cycles: 433570802 cumulative IPC: 0.4613 (Simulation time: 07 hr 12 min 17 sec)
Simulation complete CPU 5 instructions: 522034800 cycles: 433570802 cumulative IPC: 1.204 (Simulation time: 07 hr 12 min 17 sec)
Simulation complete CPU 6 instructions: 612931183 cycles: 433570802 cumulative IPC: 1.414 (Simulation time: 07 hr 12 min 17 sec)
Simulation complete CPU 7 instructions: 200401492 cycles: 433570802 cumulative IPC: 0.4622 (Simulation time: 07 hr 12 min 17 sec)

ChampSim completed all CPUs

=== Simulation ===
CPU 0 runs /public/champsim/dp3_traces/631.deepsjeng_s-928B.champsimtrace.xzCPU 1 runs /public/champsim/dp3_traces/644.nab_s-5853B.champsimtrace.xzCPU 2 runs /public/champsim/dp3_traces/607.cactuBSSN_s-2421B.champsimtrace.xzCPU 3 runs /public/champsim/dp3_traces/649.fotonik3d_s-1176B.champsimtrace.xzCPU 4 runs /public/champsim/dp3_traces/602.gcc_s-734B.champsimtrace.xzCPU 5 runs /public/champsim/dp3_traces/621.wrf_s-575B.champsimtrace.xzCPU 6 runs /public/champsim/dp3_traces/600.perlbench_s-210B.champsimtrace.xzCPU 7 runs /public/champsim/dp3_traces/649.fotonik3d_s-1176B.champsimtrace.xz
Total Simulation Statistics (not including warmup)

CPU 0 cumulative IPC: 0.9167 instructions: 397434669 cycles: 433570802
CPU 0 Branch Prediction Accuracy: 95.72% MPKI: 6.335 Average ROB Occupancy at Mispredict: 72.1
Branch type MPKI
BRANCH_DIRECT_JUMP: 0.0182
BRANCH_INDIRECT: 0.00976
BRANCH_CONDITIONAL: 5.78
BRANCH_DIRECT_CALL: 0.0194
BRANCH_INDIRECT_CALL: 0
BRANCH_RETURN: 0.507


CPU 1 cumulative IPC: 1.882 instructions: 816029032 cycles: 433570802
CPU 1 Branch Prediction Accuracy: 88.56% MPKI: 11.07 Average ROB Occupancy at Mispredict: 69.05
Branch type MPKI
BRANCH_DIRECT_JUMP: 0.000113
BRANCH_INDIRECT: 0
BRANCH_CONDITIONAL: 5.55
BRANCH_DIRECT_CALL: 1.23e-06
BRANCH_INDIRECT_CALL: 0
BRANCH_RETURN: 5.53


CPU 2 cumulative IPC: 0.7024 instructions: 304554301 cycles: 433570802
CPU 2 Branch Prediction Accuracy: 99.85% MPKI: 0.001796 Average ROB Occupancy at Mispredict: 370.1
Branch type MPKI
BRANCH_DIRECT_JUMP: 0
BRANCH_INDIRECT: 0
BRANCH_CONDITIONAL: 0.0018
BRANCH_DIRECT_CALL: 0
BRANCH_INDIRECT_CALL: 0
BRANCH_RETURN: 0


CPU 3 cumulative IPC: 0.4718 instructions: 204552356 cycles: 433570802
CPU 3 Branch Prediction Accuracy: 99.21% MPKI: 0.1567 Average ROB Occupancy at Mispredict: 58.26
Branch type MPKI
BRANCH_DIRECT_JUMP: 0.000435
BRANCH_INDIRECT: 0
BRANCH_CONDITIONAL: 0.117
BRANCH_DIRECT_CALL: 7.82e-05
BRANCH_INDIRECT_CALL: 0
BRANCH_RETURN: 0.0392


CPU 4 cumulative IPC: 0.4613 instructions: 200000001 cycles: 433570802
CPU 4 Branch Prediction Accuracy: 99.86% MPKI: 0.3226 Average ROB Occupancy at Mispredict: 139.9
Branch type MPKI
BRANCH_DIRECT_JUMP: 0.101
BRANCH_INDIRECT: 0
BRANCH_CONDITIONAL: 0.146
BRANCH_DIRECT_CALL: 0.0759
BRANCH_INDIRECT_CALL: 5e-06
BRANCH_RETURN: 0


CPU 5 cumulative IPC: 1.204 instructions: 522034800 cycles: 433570802
CPU 5 Branch Prediction Accuracy: 97.14% MPKI: 3.549 Average ROB Occupancy at Mispredict: 97.78
Branch type MPKI
BRANCH_DIRECT_JUMP: 0.000584
BRANCH_INDIRECT: 3.06e-05
BRANCH_CONDITIONAL: 3.01
BRANCH_DIRECT_CALL: 0.00349
BRANCH_INDIRECT_CALL: 0
BRANCH_RETURN: 0.532


CPU 6 cumulative IPC: 1.414 instructions: 612931183 cycles: 433570802
CPU 6 Branch Prediction Accuracy: 98.5% MPKI: 2.31 Average ROB Occupancy at Mispredict: 99.55
Branch type MPKI
BRANCH_DIRECT_JUMP: 0.0576
BRANCH_INDIRECT: 0.387
BRANCH_CONDITIONAL: 1.61
BRANCH_DIRECT_CALL: 0.0187
BRANCH_INDIRECT_CALL: 0.221
BRANCH_RETURN: 0.0193


CPU 7 cumulative IPC: 0.4622 instructions: 200401492 cycles: 433570802
CPU 7 Branch Prediction Accuracy: 99.2% MPKI: 0.1599 Average ROB Occupancy at Mispredict: 57.87
Branch type MPKI
BRANCH_DIRECT_JUMP: 0.000444
BRANCH_INDIRECT: 0
BRANCH_CONDITIONAL: 0.119
BRANCH_DIRECT_CALL: 7.98e-05
BRANCH_INDIRECT_CALL: 0
BRANCH_RETURN: 0.04

cpu0 INVINCIBLE ACTIVATED: 0 FREED: 0
LLC LOAD         IN CARTEL ACCESSES:          0 BLOCKED ACCESSES:          0
LLC RFO          IN CARTEL ACCESSES:          0 BLOCKED ACCESSES:          0
LLC PREFETCH     IN CARTEL ACCESSES:          0 BLOCKED ACCESSES:          0
LLC WRITE        IN CARTEL ACCESSES:          0 BLOCKED ACCESSES:          0
LLC TRANSLATION  IN CARTEL ACCESSES:          0 BLOCKED ACCESSES:          0
LLC TOTAL       IN CARTEL ACCESS:     293765 IN CARTEL HIT:       7457 IN CARTEL MISS:     286308
LLC LOAD         IN CARTEL ACCESS:     112097 IN CARTEL HIT:        790 IN CARTEL MISS:     111307
LLC RFO          IN CARTEL ACCESS:       4032 IN CARTEL HIT:       1175 IN CARTEL MISS:       2857
LLC PREFETCH     IN CARTEL ACCESS:       2927 IN CARTEL HIT:        159 IN CARTEL MISS:       2768
LLC WRITE        IN CARTEL ACCESS:      79752 IN CARTEL HIT:       5321 IN CARTEL MISS:      74431
LLC TRANSLATION  IN CARTEL ACCESS:      94957 IN CARTEL HIT:         12 IN CARTEL MISS:      94945
LLC TOTAL        ACCESS:     293765 HIT:       7457 MISS:     286308
LLC LOAD         ACCESS:     112097 HIT:        790 MISS:     111307
LLC RFO          ACCESS:       4032 HIT:       1175 MISS:       2857
LLC PREFETCH     ACCESS:       2927 HIT:        159 MISS:       2768
LLC WRITE        ACCESS:      79752 HIT:       5321 MISS:      74431
LLC TRANSLATION  ACCESS:      94957 HIT:         12 MISS:      94945
LLC PREFETCH REQUESTED:          0 ISSUED:          0 USEFUL:          0 USELESS:          0
LLC AVERAGE MISS LATENCY: 1339 cycles
cpu1 INVINCIBLE ACTIVATED: 0 FREED: 0
LLC LOAD         IN CARTEL ACCESSES:          0 BLOCKED ACCESSES:          0
LLC RFO          IN CARTEL ACCESSES:          0 BLOCKED ACCESSES:          0
LLC PREFETCH     IN CARTEL ACCESSES:          0 BLOCKED ACCESSES:          0
LLC WRITE        IN CARTEL ACCESSES:          0 BLOCKED ACCESSES:          0
LLC TRANSLATION  IN CARTEL ACCESSES:          0 BLOCKED ACCESSES:          0
LLC TOTAL       IN CARTEL ACCESS:     184328 IN CARTEL HIT:       1078 IN CARTEL MISS:     183250
LLC LOAD         IN CARTEL ACCESS:      25666 IN CARTEL HIT:        398 IN CARTEL MISS:      25268
LLC RFO          IN CARTEL ACCESS:        380 IN CARTEL HIT:         86 IN CARTEL MISS:        294
LLC PREFETCH     IN CARTEL ACCESS:     149544 IN CARTEL HIT:        436 IN CARTEL MISS:     149108
LLC WRITE        IN CARTEL ACCESS:       6348 IN CARTEL HIT:        154 IN CARTEL MISS:       6194
LLC TRANSLATION  IN CARTEL ACCESS:       2390 IN CARTEL HIT:          4 IN CARTEL MISS:       2386
LLC TOTAL        ACCESS:     184328 HIT:       1078 MISS:     183250
LLC LOAD         ACCESS:      25666 HIT:        398 MISS:      25268
LLC RFO          ACCESS:        380 HIT:         86 MISS:        294
LLC PREFETCH     ACCESS:     149544 HIT:        436 MISS:     149108
LLC WRITE        ACCESS:       6348 HIT:        154 MISS:       6194
LLC TRANSLATION  ACCESS:       2390 HIT:          4 MISS:       2386
LLC PREFETCH REQUESTED:          0 ISSUED:          0 USEFUL:          0 USELESS:          0
LLC AVERAGE MISS LATENCY: 1339 cycles
cpu2 INVINCIBLE ACTIVATED: 0 FREED: 0
LLC LOAD         IN CARTEL ACCESSES:          0 BLOCKED ACCESSES:          0
LLC RFO          IN CARTEL ACCESSES:          0 BLOCKED ACCESSES:          0
LLC PREFETCH     IN CARTEL ACCESSES:          0 BLOCKED ACCESSES:          0
LLC WRITE        IN CARTEL ACCESSES:          0 BLOCKED ACCESSES:          0
LLC TRANSLATION  IN CARTEL ACCESSES:          0 BLOCKED ACCESSES:          0
LLC TOTAL       IN CARTEL ACCESS:    3470269 IN CARTEL HIT:    1090512 IN CARTEL MISS:    2379757
LLC LOAD         IN CARTEL ACCESS:    3123776 IN CARTEL HIT:     774699 IN CARTEL MISS:    2349077
LLC RFO          IN CARTEL ACCESS:        663 IN CARTEL HIT:        663 IN CARTEL MISS:          0
LLC PREFETCH     IN CARTEL ACCESS:       3767 IN CARTEL HIT:       2483 IN CARTEL MISS:       1284
LLC WRITE        IN CARTEL ACCESS:     295588 IN CARTEL HIT:     294882 IN CARTEL MISS:        706
LLC TRANSLATION  IN CARTEL ACCESS:      46475 IN CARTEL HIT:      17785 IN CARTEL MISS:      28690
LLC TOTAL        ACCESS:    3470269 HIT:    1090512 MISS:    2379757
LLC LOAD         ACCESS:    3123776 HIT:     774699 MISS:    2349077
LLC RFO          ACCESS:        663 HIT:        663 MISS:          0
LLC PREFETCH     ACCESS:       3767 HIT:       2483 MISS:       1284
LLC WRITE        ACCESS:     295588 HIT:     294882 MISS:        706
LLC TRANSLATION  ACCESS:      46475 HIT:      17785 MISS:      28690
LLC PREFETCH REQUESTED:          0 ISSUED:          0 USEFUL:          0 USELESS:          0
LLC AVERAGE MISS LATENCY: 1339 cycles
cpu3 INVINCIBLE ACTIVATED: 0 FREED: 0
LLC LOAD         IN CARTEL ACCESSES:          0 BLOCKED ACCESSES:          0
LLC RFO          IN CARTEL ACCESSES:          0 BLOCKED ACCESSES:          0
LLC PREFETCH     IN CARTEL ACCESSES:          0 BLOCKED ACCESSES:          0
LLC WRITE        IN CARTEL ACCESSES:          0 BLOCKED ACCESSES:          0
[...]
cpu7_ITLB PREFETCH REQUESTED:          0 ISSUED:          0 USEFUL:          0 USELESS:          0
cpu7_ITLB AVERAGE MISS LATENCY: 733.6 cycles
cpu7_ITLB TOTAL        ACCESS:       2699 HIT:       2676 MISS:         23
cpu7_ITLB LOAD         ACCESS:       2699 HIT:       2676 MISS:         23
cpu7_ITLB RFO          ACCESS:          0 HIT:          0 MISS:          0
cpu7_ITLB PREFETCH     ACCESS:          0 HIT:          0 MISS:          0
cpu7_ITLB WRITE        ACCESS:          0 HIT:          0 MISS:          0
cpu7_ITLB TRANSLATION  ACCESS:          0 HIT:          0 MISS:          0
cpu7_ITLB PREFETCH REQUESTED:          0 ISSUED:          0 USEFUL:          0 USELESS:          0
cpu7_ITLB AVERAGE MISS LATENCY: 733.6 cycles
cpu7_L1D TOTAL        ACCESS:          0 HIT:          0 MISS:          0
cpu7_L1D LOAD         ACCESS:          0 HIT:          0 MISS:          0
cpu7_L1D RFO          ACCESS:          0 HIT:          0 MISS:          0
cpu7_L1D PREFETCH     ACCESS:          0 HIT:          0 MISS:          0
cpu7_L1D WRITE        ACCESS:          0 HIT:          0 MISS:          0
cpu7_L1D TRANSLATION  ACCESS:          0 HIT:          0 MISS:          0
cpu7_L1D PREFETCH REQUESTED:    1444880 ISSUED:    1444695 USEFUL:     912506 USELESS:       2202
cpu7_L1D AVERAGE MISS LATENCY: 130.5 cycles
cpu7_L1D TOTAL        ACCESS:          0 HIT:          0 MISS:          0
cpu7_L1D LOAD         ACCESS:          0 HIT:          0 MISS:          0
cpu7_L1D RFO          ACCESS:          0 HIT:          0 MISS:          0
cpu7_L1D PREFETCH     ACCESS:          0 HIT:          0 MISS:          0
cpu7_L1D WRITE        ACCESS:          0 HIT:          0 MISS:          0
cpu7_L1D TRANSLATION  ACCESS:          0 HIT:          0 MISS:          0
cpu7_L1D PREFETCH REQUESTED:    1444880 ISSUED:    1444695 USEFUL:     912506 USELESS:       2202
cpu7_L1D AVERAGE MISS LATENCY: 130.5 cycles
cpu7_L1D TOTAL        ACCESS:          0 HIT:          0 MISS:          0
cpu7_L1D LOAD         ACCESS:          0 HIT:          0 MISS:          0
cpu7_L1D RFO          ACCESS:          0 HIT:          0 MISS:          0
cpu7_L1D PREFETCH     ACCESS:          0 HIT:          0 MISS:          0
cpu7_L1D WRITE        ACCESS:          0 HIT:          0 MISS:          0
cpu7_L1D TRANSLATION  ACCESS:          0 HIT:          0 MISS:          0
cpu7_L1D PREFETCH REQUESTED:    1444880 ISSUED:    1444695 USEFUL:     912506 USELESS:       2202
cpu7_L1D AVERAGE MISS LATENCY: 130.5 cycles
cpu7_L1D TOTAL        ACCESS:          0 HIT:          0 MISS:          0
cpu7_L1D LOAD         ACCESS:          0 HIT:          0 MISS:          0
cpu7_L1D RFO          ACCESS:          0 HIT:          0 MISS:          0
cpu7_L1D PREFETCH     ACCESS:          0 HIT:          0 MISS:          0
cpu7_L1D WRITE        ACCESS:          0 HIT:          0 MISS:          0
cpu7_L1D TRANSLATION  ACCESS:          0 HIT:          0 MISS:          0
cpu7_L1D PREFETCH REQUESTED:    1444880 ISSUED:    1444695 USEFUL:     912506 USELESS:       2202
cpu7_L1D AVERAGE MISS LATENCY: 130.5 cycles
cpu7_L1D TOTAL        ACCESS:          0 HIT:          0 MISS:          0
cpu7_L1D LOAD         ACCESS:          0 HIT:          0 MISS:          0
cpu7_L1D RFO          ACCESS:          0 HIT:          0 MISS:          0
cpu7_L1D PREFETCH     ACCESS:          0 HIT:          0 MISS:          0
cpu7_L1D WRITE        ACCESS:          0 HIT:          0 MISS:          0
cpu7_L1D TRANSLATION  ACCESS:          0 HIT:          0 MISS:          0
cpu7_L1D PREFETCH REQUESTED:    1444880 ISSUED:    1444695 USEFUL:     912506 USELESS:       2202
cpu7_L1D AVERAGE MISS LATENCY: 130.5 cycles
cpu7_L1D TOTAL        ACCESS:          0 HIT:          0 MISS:          0
cpu7_L1D LOAD         ACCESS:          0 HIT:          0 MISS:          0
cpu7_L1D RFO          ACCESS:          0 HIT:          0 MISS:          0
cpu7_L1D PREFETCH     ACCESS:          0 HIT:          0 MISS:          0
cpu7_L1D WRITE        ACCESS:          0 HIT:          0 MISS:          0
cpu7_L1D TRANSLATION  ACCESS:          0 HIT:          0 MISS:          0
cpu7_L1D PREFETCH REQUESTED:    1444880 ISSUED:    1444695 USEFUL:     912506 USELESS:       2202
cpu7_L1D AVERAGE MISS LATENCY: 130.5 cycles
cpu7_L1D TOTAL        ACCESS:          0 HIT:          0 MISS:          0
cpu7_L1D LOAD         ACCESS:          0 HIT:          0 MISS:          0
cpu7_L1D RFO          ACCESS:          0 HIT:          0 MISS:          0
cpu7_L1D PREFETCH     ACCESS:          0 HIT:          0 MISS:          0
cpu7_L1D WRITE        ACCESS:          0 HIT:          0 MISS:          0
cpu7_L1D TRANSLATION  ACCESS:          0 HIT:          0 MISS:          0
cpu7_L1D PREFETCH REQUESTED:    1444880 ISSUED:    1444695 USEFUL:     912506 USELESS:       2202
cpu7_L1D AVERAGE MISS LATENCY: 130.5 cycles
cpu7_L1D TOTAL        ACCESS:   63852002 HIT:   56258509 MISS:    7593493
cpu7_L1D LOAD         ACCESS:   48231029 HIT:   41646151 MISS:    6584878
cpu7_L1D RFO          ACCESS:          0 HIT:          0 MISS:          0
cpu7_L1D PREFETCH     ACCESS:    1441707 HIT:     452550 MISS:     989157
cpu7_L1D WRITE        ACCESS:   14152154 HIT:   14133791 MISS:      18363
cpu7_L1D TRANSLATION  ACCESS:      27112 HIT:      26017 MISS:       1095
cpu7_L1D PREFETCH REQUESTED:    1444880 ISSUED:    1444695 USEFUL:     912506 USELESS:       2202
cpu7_L1D AVERAGE MISS LATENCY: 130.5 cycles
cpu7_L1I TOTAL        ACCESS:          0 HIT:          0 MISS:          0
cpu7_L1I LOAD         ACCESS:          0 HIT:          0 MISS:          0
cpu7_L1I RFO          ACCESS:          0 HIT:          0 MISS:          0
cpu7_L1I PREFETCH     ACCESS:          0 HIT:          0 MISS:          0
cpu7_L1I WRITE        ACCESS:          0 HIT:          0 MISS:          0
cpu7_L1I TRANSLATION  ACCESS:          0 HIT:          0 MISS:          0
cpu7_L1I PREFETCH REQUESTED:          0 ISSUED:          0 USEFUL:          0 USELESS:          0
cpu7_L1I AVERAGE MISS LATENCY: 667 cycles
cpu7_L1I TOTAL        ACCESS:          0 HIT:          0 MISS:          0
cpu7_L1I LOAD         ACCESS:          0 HIT:          0 MISS:          0
cpu7_L1I RFO          ACCESS:          0 HIT:          0 MISS:          0
cpu7_L1I PREFETCH     ACCESS:          0 HIT:          0 MISS:          0
cpu7_L1I WRITE        ACCESS:          0 HIT:          0 MISS:          0
cpu7_L1I TRANSLATION  ACCESS:          0 HIT:          0 MISS:          0
cpu7_L1I PREFETCH REQUESTED:          0 ISSUED:          0 USEFUL:          0 USELESS:          0
cpu7_L1I AVERAGE MISS LATENCY: 667 cycles
cpu7_L1I TOTAL        ACCESS:          0 HIT:          0 MISS:          0
cpu7_L1I LOAD         ACCESS:          0 HIT:          0 MISS:          0
cpu7_L1I RFO          ACCESS:          0 HIT:          0 MISS:          0
cpu7_L1I PREFETCH     ACCESS:          0 HIT:          0 MISS:          0
cpu7_L1I WRITE        ACCESS:          0 HIT:          0 MISS:          0
cpu7_L1I TRANSLATION  ACCESS:          0 HIT:          0 MISS:          0
cpu7_L1I PREFETCH REQUESTED:          0 ISSUED:          0 USEFUL:          0 USELESS:          0
cpu7_L1I AVERAGE MISS LATENCY: 667 cycles
cpu7_L1I TOTAL        ACCESS:          0 HIT:          0 MISS:          0
cpu7_L1I LOAD         ACCESS:          0 HIT:          0 MISS:          0
cpu7_L1I RFO          ACCESS:          0 HIT:          0 MISS:          0
cpu7_L1I PREFETCH     ACCESS:          0 HIT:          0 MISS:          0
cpu7_L1I WRITE        ACCESS:          0 HIT:          0 MISS:          0
cpu7_L1I TRANSLATION  ACCESS:          0 HIT:          0 MISS:          0
cpu7_L1I PREFETCH REQUESTED:          0 ISSUED:          0 USEFUL:          0 USELESS:          0
cpu7_L1I AVERAGE MISS LATENCY: 667 cycles
cpu7_L1I TOTAL        ACCESS:          0 HIT:          0 MISS:          0
cpu7_L1I LOAD         ACCESS:          0 HIT:          0 MISS:          0
cpu7_L1I RFO          ACCESS:          0 HIT:          0 MISS:          0
cpu7_L1I PREFETCH     ACCESS:          0 HIT:          0 MISS:          0
cpu7_L1I WRITE        ACCESS:          0 HIT:          0 MISS:          0
cpu7_L1I TRANSLATION  ACCESS:          0 HIT:          0 MISS:          0
cpu7_L1I PREFETCH REQUESTED:          0 ISSUED:          0 USEFUL:          0 USELESS:          0
cpu7_L1I AVERAGE MISS LATENCY: 667 cycles
cpu7_L1I TOTAL        ACCESS:          0 HIT:          0 MISS:          0
cpu7_L1I LOAD         ACCESS:          0 HIT:          0 MISS:          0
cpu7_L1I RFO          ACCESS:          0 HIT:          0 MISS:          0
cpu7_L1I PREFETCH     ACCESS:          0 HIT:          0 MISS:          0
cpu7_L1I WRITE        ACCESS:          0 HIT:          0 MISS:          0
cpu7_L1I TRANSLATION  ACCESS:          0 HIT:          0 MISS:          0
cpu7_L1I PREFETCH REQUESTED:          0 ISSUED:          0 USEFUL:          0 USELESS:          0
cpu7_L1I AVERAGE MISS LATENCY: 667 cycles
cpu7_L1I TOTAL        ACCESS:          0 HIT:          0 MISS:          0
cpu7_L1I LOAD         ACCESS:          0 HIT:          0 MISS:          0
cpu7_L1I RFO          ACCESS:          0 HIT:          0 MISS:          0
cpu7_L1I PREFETCH     ACCESS:          0 HIT:          0 MISS:          0
cpu7_L1I WRITE        ACCESS:          0 HIT:          0 MISS:          0
cpu7_L1I TRANSLATION  ACCESS:          0 HIT:          0 MISS:          0
cpu7_L1I PREFETCH REQUESTED:          0 ISSUED:          0 USEFUL:          0 USELESS:          0
cpu7_L1I AVERAGE MISS LATENCY: 667 cycles
cpu7_L1I TOTAL        ACCESS:       3417 HIT:       3018 MISS:        399
cpu7_L1I LOAD         ACCESS:       3417 HIT:       3018 MISS:        399
cpu7_L1I RFO          ACCESS:          0 HIT:          0 MISS:          0
cpu7_L1I PREFETCH     ACCESS:          0 HIT:          0 MISS:          0
cpu7_L1I WRITE        ACCESS:          0 HIT:          0 MISS:          0
cpu7_L1I TRANSLATION  ACCESS:          0 HIT:          0 MISS:          0
cpu7_L1I PREFETCH REQUESTED:          0 ISSUED:          0 USEFUL:          0 USELESS:          0
cpu7_L1I AVERAGE MISS LATENCY: 667 cycles
cpu7_L2C TOTAL        ACCESS:          0 HIT:          0 MISS:          0
cpu7_L2C LOAD         ACCESS:          0 HIT:          0 MISS:          0
cpu7_L2C RFO          ACCESS:          0 HIT:          0 MISS:          0
cpu7_L2C PREFETCH     ACCESS:          0 HIT:          0 MISS:          0
cpu7_L2C WRITE        ACCESS:          0 HIT:          0 MISS:          0
cpu7_L2C TRANSLATION  ACCESS:          0 HIT:          0 MISS:          0
cpu7_L2C PREFETCH REQUESTED:    4367669 ISSUED:    4367665 USEFUL:    1435503 USELESS:       3342
cpu7_L2C AVERAGE MISS LATENCY: 378.3 cycles
cpu7_L2C TOTAL        ACCESS:          0 HIT:          0 MISS:          0
cpu7_L2C LOAD         ACCESS:          0 HIT:          0 MISS:          0
cpu7_L2C RFO          ACCESS:          0 HIT:          0 MISS:          0
cpu7_L2C PREFETCH     ACCESS:          0 HIT:          0 MISS:          0
cpu7_L2C WRITE        ACCESS:          0 HIT:          0 MISS:          0
cpu7_L2C TRANSLATION  ACCESS:          0 HIT:          0 MISS:          0
cpu7_L2C PREFETCH REQUESTED:    4367669 ISSUED:    4367665 USEFUL:    1435503 USELESS:       3342
cpu7_L2C AVERAGE MISS LATENCY: 378.3 cycles
cpu7_L2C TOTAL        ACCESS:          0 HIT:          0 MISS:          0
cpu7_L2C LOAD         ACCESS:          0 HIT:          0 MISS:          0
cpu7_L2C RFO          ACCESS:          0 HIT:          0 MISS:          0
cpu7_L2C PREFETCH     ACCESS:          0 HIT:          0 MISS:          0
cpu7_L2C WRITE        ACCESS:          0 HIT:          0 MISS:          0
cpu7_L2C TRANSLATION  ACCESS:          0 HIT:          0 MISS:          0
cpu7_L2C PREFETCH REQUESTED:    4367669 ISSUED:    4367665 USEFUL:    1435503 USELESS:       3342
cpu7_L2C AVERAGE MISS LATENCY: 378.3 cycles
cpu7_L2C TOTAL        ACCESS:          0 HIT:          0 MISS:          0
cpu7_L2C LOAD         ACCESS:          0 HIT:          0 MISS:          0
cpu7_L2C RFO          ACCESS:          0 HIT:          0 MISS:          0
cpu7_L2C PREFETCH     ACCESS:          0 HIT:          0 MISS:          0
cpu7_L2C WRITE        ACCESS:          0 HIT:          0 MISS:          0
cpu7_L2C TRANSLATION  ACCESS:          0 HIT:          0 MISS:          0
cpu7_L2C PREFETCH REQUESTED:    4367669 ISSUED:    4367665 USEFUL:    1435503 USELESS:       3342
cpu7_L2C AVERAGE MISS LATENCY: 378.3 cycles
cpu7_L2C TOTAL        ACCESS:          0 HIT:          0 MISS:          0
cpu7_L2C LOAD         ACCESS:          0 HIT:          0 MISS:          0
cpu7_L2C RFO          ACCESS:          0 HIT:          0 MISS:          0
cpu7_L2C PREFETCH     ACCESS:          0 HIT:          0 MISS:          0
cpu7_L2C WRITE        ACCESS:          0 HIT:          0 MISS:          0
cpu7_L2C TRANSLATION  ACCESS:          0 HIT:          0 MISS:          0
cpu7_L2C PREFETCH REQUESTED:    4367669 ISSUED:    4367665 USEFUL:    1435503 USELESS:       3342
cpu7_L2C AVERAGE MISS LATENCY: 378.3 cycles
cpu7_L2C TOTAL        ACCESS:          0 HIT:          0 MISS:          0
cpu7_L2C LOAD         ACCESS:          0 HIT:          0 MISS:          0
cpu7_L2C RFO          ACCESS:          0 HIT:          0 MISS:          0
cpu7_L2C PREFETCH     ACCESS:          0 HIT:          0 MISS:          0
cpu7_L2C WRITE        ACCESS:          0 HIT:          0 MISS:          0
cpu7_L2C TRANSLATION  ACCESS:          0 HIT:          0 MISS:          0
cpu7_L2C PREFETCH REQUESTED:    4367669 ISSUED:    4367665 USEFUL:    1435503 USELESS:       3342
cpu7_L2C AVERAGE MISS LATENCY: 378.3 cycles
cpu7_L2C TOTAL        ACCESS:          0 HIT:          0 MISS:          0
cpu7_L2C LOAD         ACCESS:          0 HIT:          0 MISS:          0
cpu7_L2C RFO          ACCESS:          0 HIT:          0 MISS:          0
cpu7_L2C PREFETCH     ACCESS:          0 HIT:          0 MISS:          0
cpu7_L2C WRITE        ACCESS:          0 HIT:          0 MISS:          0
cpu7_L2C TRANSLATION  ACCESS:          0 HIT:          0 MISS:          0
cpu7_L2C PREFETCH REQUESTED:    4367669 ISSUED:    4367665 USEFUL:    1435503 USELESS:       3342
cpu7_L2C AVERAGE MISS LATENCY: 378.3 cycles
cpu7_L2C TOTAL        ACCESS:    8709547 HIT:    4383654 MISS:    4325893
cpu7_L2C LOAD         ACCESS:    1688858 HIT:     653537 MISS:    1035321
cpu7_L2C RFO          ACCESS:       5031 HIT:       4651 MISS:        380
cpu7_L2C PREFETCH     ACCESS:    5285893 HIT:    1996128 MISS:    3289765
cpu7_L2C WRITE        ACCESS:    1728681 HIT:    1728681 MISS:          0
cpu7_L2C TRANSLATION  ACCESS:       1084 HIT:        657 MISS:        427
cpu7_L2C PREFETCH REQUESTED:    4367669 ISSUED:    4367665 USEFUL:    1435503 USELESS:       3342
cpu7_L2C AVERAGE MISS LATENCY: 378.3 cycles
cpu7_STLB TOTAL        ACCESS:          0 HIT:          0 MISS:          0
cpu7_STLB LOAD         ACCESS:          0 HIT:          0 MISS:          0
cpu7_STLB RFO          ACCESS:          0 HIT:          0 MISS:          0
cpu7_STLB PREFETCH     ACCESS:          0 HIT:          0 MISS:          0
cpu7_STLB WRITE        ACCESS:          0 HIT:          0 MISS:          0
cpu7_STLB TRANSLATION  ACCESS:          0 HIT:          0 MISS:          0
cpu7_STLB PREFETCH REQUESTED:          0 ISSUED:          0 USEFUL:          0 USELESS:          0
cpu7_STLB AVERAGE MISS LATENCY: 218.1 cycles
cpu7_STLB TOTAL        ACCESS:          0 HIT:          0 MISS:          0
cpu7_STLB LOAD         ACCESS:          0 HIT:          0 MISS:          0
cpu7_STLB RFO          ACCESS:          0 HIT:          0 MISS:          0
cpu7_STLB PREFETCH     ACCESS:          0 HIT:          0 MISS:          0
cpu7_STLB WRITE        ACCESS:          0 HIT:          0 MISS:          0
cpu7_STLB TRANSLATION  ACCESS:          0 HIT:          0 MISS:          0
cpu7_STLB PREFETCH REQUESTED:          0 ISSUED:          0 USEFUL:          0 USELESS:          0
cpu7_STLB AVERAGE MISS LATENCY: 218.1 cycles
cpu7_STLB TOTAL        ACCESS:          0 HIT:          0 MISS:          0
cpu7_STLB LOAD         ACCESS:          0 HIT:          0 MISS:          0
cpu7_STLB RFO          ACCESS:          0 HIT:          0 MISS:          0
cpu7_STLB PREFETCH     ACCESS:          0 HIT:          0 MISS:          0
cpu7_STLB WRITE        ACCESS:          0 HIT:          0 MISS:          0
cpu7_STLB TRANSLATION  ACCESS:          0 HIT:          0 MISS:          0
cpu7_STLB PREFETCH REQUESTED:          0 ISSUED:          0 USEFUL:          0 USELESS:          0
cpu7_STLB AVERAGE MISS LATENCY: 218.1 cycles
cpu7_STLB TOTAL        ACCESS:          0 HIT:          0 MISS:          0
cpu7_STLB LOAD         ACCESS:          0 HIT:          0 MISS:          0
cpu7_STLB RFO          ACCESS:          0 HIT:          0 MISS:          0
cpu7_STLB PREFETCH     ACCESS:          0 HIT:          0 MISS:          0
cpu7_STLB WRITE        ACCESS:          0 HIT:          0 MISS:          0
cpu7_STLB TRANSLATION  ACCESS:          0 HIT:          0 MISS:          0
cpu7_STLB PREFETCH REQUESTED:          0 ISSUED:          0 USEFUL:          0 USELESS:          0
cpu7_STLB AVERAGE MISS LATENCY: 218.1 cycles
cpu7_STLB TOTAL        ACCESS:          0 HIT:          0 MISS:          0
cpu7_STLB LOAD         ACCESS:          0 HIT:          0 MISS:          0
cpu7_STLB RFO          ACCESS:          0 HIT:          0 MISS:          0
cpu7_STLB PREFETCH     ACCESS:          0 HIT:          0 MISS:          0
cpu7_STLB WRITE        ACCESS:          0 HIT:          0 MISS:          0
cpu7_STLB TRANSLATION  ACCESS:          0 HIT:          0 MISS:          0
cpu7_STLB PREFETCH REQUESTED:          0 ISSUED:          0 USEFUL:          0 USELESS:          0
cpu7_STLB AVERAGE MISS LATENCY: 218.1 cycles
cpu7_STLB TOTAL        ACCESS:          0 HIT:          0 MISS:          0
cpu7_STLB LOAD         ACCESS:          0 HIT:          0 MISS:          0
cpu7_STLB RFO          ACCESS:          0 HIT:          0 MISS:          0
cpu7_STLB PREFETCH     ACCESS:          0 HIT:          0 MISS:          0
cpu7_STLB WRITE        ACCESS:          0 HIT:          0 MISS:          0
cpu7_STLB TRANSLATION  ACCESS:          0 HIT:          0 MISS:          0
cpu7_STLB PREFETCH REQUESTED:          0 ISSUED:          0 USEFUL:          0 USELESS:          0
cpu7_STLB AVERAGE MISS LATENCY: 218.1 cycles
cpu7_STLB TOTAL        ACCESS:          0 HIT:          0 MISS:          0
cpu7_STLB LOAD         ACCESS:          0 HIT:          0 MISS:          0
cpu7_STLB RFO          ACCESS:          0 HIT:          0 MISS:          0
cpu7_STLB PREFETCH     ACCESS:          0 HIT:          0 MISS:          0
cpu7_STLB WRITE        ACCESS:          0 HIT:          0 MISS:          0
cpu7_STLB TRANSLATION  ACCESS:          0 HIT:          0 MISS:          0
cpu7_STLB PREFETCH REQUESTED:          0 ISSUED:          0 USEFUL:          0 USELESS:          0
cpu7_STLB AVERAGE MISS LATENCY: 218.1 cycles
cpu7_STLB TOTAL        ACCESS:      45993 HIT:      18991 MISS:      27002
cpu7_STLB LOAD         ACCESS:      45993 HIT:      18991 MISS:      27002
cpu7_STLB RFO          ACCESS:          0 HIT:          0 MISS:          0
cpu7_STLB PREFETCH     ACCESS:          0 HIT:          0 MISS:          0
cpu7_STLB WRITE        ACCESS:          0 HIT:          0 MISS:          0
cpu7_STLB TRANSLATION  ACCESS:          0 HIT:          0 MISS:          0
cpu7_STLB PREFETCH REQUESTED:          0 ISSUED:          0 USEFUL:          0 USELESS:          0
cpu7_STLB AVERAGE MISS LATENCY: 218.1 cycles

DRAM Statistics

Channel 0 RQ ROW_BUFFER_HIT:    1139094
  ROW_BUFFER_MISS:    3800454
 AVG DBUS CONGESTED CYCLE: 3.964

Channel 0 WQ ROW_BUFFER_HIT:      70529
  ROW_BUFFER_MISS:    2306541
  FULL:          0

Channel 1 RQ ROW_BUFFER_HIT:    1134122
  ROW_BUFFER_MISS:    3798867
 AVG DBUS CONGESTED CYCLE: 3.964

Channel 1 WQ ROW_BUFFER_HIT:      69690
  ROW_BUFFER_MISS:    2307101
  FULL:          0
