WARNING: physical memory size is smaller than virtual memory size.

*** ChampSim Multicore Out-of-Order Simulator ***
Warmup Instructions: 200000000
Simulation Instructions: 200000000
Number of CPUs: 8
Page size: 4096

Off-chip DRAM Size: 8 GiB Channels: 2 Width: 64-bit Data Race: 3200 MT/s
Heartbeat CPU 0 instructions: 10000002 cycles: 2500086 heartbeat IPC: 4 cumulative IPC: 4 (Simulation time: 00 hr 04 min 11 sec)
Heartbeat CPU 1 instructions: 10000001 cycles: 2500314 heartbeat IPC: 3.999 cumulative IPC: 3.999 (Simulation time: 00 hr 04 min 11 sec)
Heartbeat CPU 3 instructions: 10000003 cycles: 2500890 heartbeat IPC: 3.999 cumulative IPC: 3.999 (Simulation time: 00 hr 04 min 11 sec)
Heartbeat CPU 4 instructions: 10000001 cycles: 2501558 heartbeat IPC: 3.998 cumulative IPC: 3.998 (Simulation time: 00 hr 04 min 11 sec)
Heartbeat CPU 5 instructions: 10000003 cycles: 2502292 heartbeat IPC: 3.996 cumulative IPC: 3.996 (Simulation time: 00 hr 04 min 11 sec)
Heartbeat CPU 6 instructions: 10000000 cycles: 2502332 heartbeat IPC: 3.996 cumulative IPC: 3.996 (Simulation time: 00 hr 04 min 11 sec)
Heartbeat CPU 7 instructions: 10000001 cycles: 2502477 heartbeat IPC: 3.996 cumulative IPC: 3.996 (Simulation time: 00 hr 04 min 11 sec)
Heartbeat CPU 2 instructions: 10000003 cycles: 2730394 heartbeat IPC: 3.662 cumulative IPC: 3.662 (Simulation time: 00 hr 04 min 34 sec)
Heartbeat CPU 0 instructions: 20000002 cycles: 5000086 heartbeat IPC: 4 cumulative IPC: 4 (Simulation time: 00 hr 08 min 24 sec)
Heartbeat CPU 1 instructions: 20000001 cycles: 5000314 heartbeat IPC: 4 cumulative IPC: 4 (Simulation time: 00 hr 08 min 24 sec)
Heartbeat CPU 3 instructions: 20000003 cycles: 5000890 heartbeat IPC: 4 cumulative IPC: 3.999 (Simulation time: 00 hr 08 min 24 sec)
Heartbeat CPU 4 instructions: 20000001 cycles: 5001558 heartbeat IPC: 4 cumulative IPC: 3.999 (Simulation time: 00 hr 08 min 25 sec)
Heartbeat CPU 6 instructions: 20000000 cycles: 5002332 heartbeat IPC: 4 cumulative IPC: 3.998 (Simulation time: 00 hr 08 min 25 sec)
Heartbeat CPU 5 instructions: 20000003 cycles: 5002461 heartbeat IPC: 4 cumulative IPC: 3.998 (Simulation time: 00 hr 08 min 25 sec)
Heartbeat CPU 7 instructions: 20000001 cycles: 5002477 heartbeat IPC: 4 cumulative IPC: 3.998 (Simulation time: 00 hr 08 min 25 sec)
Heartbeat CPU 2 instructions: 20000003 cycles: 5461192 heartbeat IPC: 3.662 cumulative IPC: 3.662 (Simulation time: 00 hr 09 min 11 sec)
Heartbeat CPU 0 instructions: 30000002 cycles: 7500086 heartbeat IPC: 4 cumulative IPC: 4 (Simulation time: 00 hr 12 min 39 sec)
Heartbeat CPU 1 instructions: 30000001 cycles: 7500314 heartbeat IPC: 4 cumulative IPC: 4 (Simulation time: 00 hr 12 min 39 sec)
Heartbeat CPU 3 instructions: 30000003 cycles: 7500890 heartbeat IPC: 4 cumulative IPC: 4 (Simulation time: 00 hr 12 min 39 sec)
Heartbeat CPU 4 instructions: 30000001 cycles: 7501558 heartbeat IPC: 4 cumulative IPC: 3.999 (Simulation time: 00 hr 12 min 39 sec)
Heartbeat CPU 6 instructions: 30000000 cycles: 7502332 heartbeat IPC: 4 cumulative IPC: 3.999 (Simulation time: 00 hr 12 min 39 sec)
Heartbeat CPU 7 instructions: 30000001 cycles: 7502477 heartbeat IPC: 4 cumulative IPC: 3.999 (Simulation time: 00 hr 12 min 39 sec)
Heartbeat CPU 5 instructions: 30000001 cycles: 7502670 heartbeat IPC: 4 cumulative IPC: 3.999 (Simulation time: 00 hr 12 min 39 sec)
Heartbeat CPU 2 instructions: 30000002 cycles: 8192970 heartbeat IPC: 3.661 cumulative IPC: 3.662 (Simulation time: 00 hr 13 min 50 sec)
Heartbeat CPU 0 instructions: 40000002 cycles: 10000086 heartbeat IPC: 4 cumulative IPC: 4 (Simulation time: 00 hr 16 min 53 sec)
Heartbeat CPU 1 instructions: 40000001 cycles: 10000314 heartbeat IPC: 4 cumulative IPC: 4 (Simulation time: 00 hr 16 min 53 sec)
Heartbeat CPU 3 instructions: 40000003 cycles: 10000890 heartbeat IPC: 4 cumulative IPC: 4 (Simulation time: 00 hr 16 min 53 sec)
Heartbeat CPU 4 instructions: 40000001 cycles: 10001558 heartbeat IPC: 4 cumulative IPC: 3.999 (Simulation time: 00 hr 16 min 53 sec)
Heartbeat CPU 6 instructions: 40000000 cycles: 10002332 heartbeat IPC: 4 cumulative IPC: 3.999 (Simulation time: 00 hr 16 min 53 sec)
Heartbeat CPU 7 instructions: 40000001 cycles: 10002477 heartbeat IPC: 4 cumulative IPC: 3.999 (Simulation time: 00 hr 16 min 53 sec)
Heartbeat CPU 5 instructions: 40000001 cycles: 10002871 heartbeat IPC: 4 cumulative IPC: 3.999 (Simulation time: 00 hr 16 min 53 sec)
Heartbeat CPU 2 instructions: 40000002 cycles: 10923712 heartbeat IPC: 3.662 cumulative IPC: 3.662 (Simulation time: 00 hr 18 min 26 sec)
Heartbeat CPU 0 instructions: 50000002 cycles: 12500086 heartbeat IPC: 4 cumulative IPC: 4 (Simulation time: 00 hr 21 min 06 sec)
Heartbeat CPU 1 instructions: 50000001 cycles: 12500314 heartbeat IPC: 4 cumulative IPC: 4 (Simulation time: 00 hr 21 min 06 sec)
Heartbeat CPU 3 instructions: 50000003 cycles: 12500890 heartbeat IPC: 4 cumulative IPC: 4 (Simulation time: 00 hr 21 min 06 sec)
Heartbeat CPU 4 instructions: 50000001 cycles: 12501558 heartbeat IPC: 4 cumulative IPC: 4 (Simulation time: 00 hr 21 min 06 sec)
Heartbeat CPU 6 instructions: 50000001 cycles: 12502395 heartbeat IPC: 4 cumulative IPC: 3.999 (Simulation time: 00 hr 21 min 06 sec)
Heartbeat CPU 7 instructions: 50000001 cycles: 12502477 heartbeat IPC: 4 cumulative IPC: 3.999 (Simulation time: 00 hr 21 min 06 sec)
Heartbeat CPU 5 instructions: 50000002 cycles: 12503075 heartbeat IPC: 4 cumulative IPC: 3.999 (Simulation time: 00 hr 21 min 06 sec)
Heartbeat CPU 2 instructions: 50000002 cycles: 13654890 heartbeat IPC: 3.661 cumulative IPC: 3.662 (Simulation time: 00 hr 23 min 02 sec)
Heartbeat CPU 0 instructions: 60000002 cycles: 15000086 heartbeat IPC: 4 cumulative IPC: 4 (Simulation time: 00 hr 25 min 20 sec)
Heartbeat CPU 1 instructions: 60000001 cycles: 15000314 heartbeat IPC: 4 cumulative IPC: 4 (Simulation time: 00 hr 25 min 20 sec)
Heartbeat CPU 3 instructions: 60000000 cycles: 15001318 heartbeat IPC: 3.999 cumulative IPC: 4 (Simulation time: 00 hr 25 min 20 sec)
Heartbeat CPU 4 instructions: 60000001 cycles: 15002287 heartbeat IPC: 3.999 cumulative IPC: 3.999 (Simulation time: 00 hr 25 min 20 sec)
Heartbeat CPU 6 instructions: 60000002 cycles: 15002517 heartbeat IPC: 4 cumulative IPC: 3.999 (Simulation time: 00 hr 25 min 20 sec)
Heartbeat CPU 5 instructions: 60000002 cycles: 15003256 heartbeat IPC: 4 cumulative IPC: 3.999 (Simulation time: 00 hr 25 min 20 sec)
Heartbeat CPU 7 instructions: 60000000 cycles: 15003323 heartbeat IPC: 3.999 cumulative IPC: 3.999 (Simulation time: 00 hr 25 min 20 sec)
Heartbeat CPU 2 instructions: 60000001 cycles: 16239803 heartbeat IPC: 3.869 cumulative IPC: 3.695 (Simulation time: 00 hr 27 min 26 sec)
Heartbeat CPU 0 instructions: 70000002 cycles: 17500086 heartbeat IPC: 4 cumulative IPC: 4 (Simulation time: 00 hr 29 min 34 sec)
Heartbeat CPU 1 instructions: 70000001 cycles: 17500314 heartbeat IPC: 4 cumulative IPC: 4 (Simulation time: 00 hr 29 min 34 sec)
Heartbeat CPU 3 instructions: 70000000 cycles: 17501318 heartbeat IPC: 4 cumulative IPC: 4 (Simulation time: 00 hr 29 min 34 sec)
Heartbeat CPU 6 instructions: 70000002 cycles: 17502517 heartbeat IPC: 4 cumulative IPC: 3.999 (Simulation time: 00 hr 29 min 34 sec)
Heartbeat CPU 4 instructions: 70000003 cycles: 17503205 heartbeat IPC: 3.999 cumulative IPC: 3.999 (Simulation time: 00 hr 29 min 34 sec)
Heartbeat CPU 7 instructions: 70000000 cycles: 17503323 heartbeat IPC: 4 cumulative IPC: 3.999 (Simulation time: 00 hr 29 min 34 sec)
Heartbeat CPU 5 instructions: 70000000 cycles: 17503660 heartbeat IPC: 3.999 cumulative IPC: 3.999 (Simulation time: 00 hr 29 min 34 sec)
Heartbeat CPU 2 instructions: 70000002 cycles: 18790668 heartbeat IPC: 3.92 cumulative IPC: 3.725 (Simulation time: 00 hr 31 min 43 sec)
Heartbeat CPU 0 instructions: 80000002 cycles: 20000086 heartbeat IPC: 4 cumulative IPC: 4 (Simulation time: 00 hr 33 min 45 sec)
Heartbeat CPU 1 instructions: 80000001 cycles: 20000314 heartbeat IPC: 4 cumulative IPC: 4 (Simulation time: 00 hr 33 min 45 sec)
Heartbeat CPU 3 instructions: 80000000 cycles: 20001318 heartbeat IPC: 4 cumulative IPC: 4 (Simulation time: 00 hr 33 min 45 sec)
Heartbeat CPU 6 instructions: 80000002 cycles: 20002517 heartbeat IPC: 4 cumulative IPC: 3.999 (Simulation time: 00 hr 33 min 46 sec)
Heartbeat CPU 4 instructions: 80000003 cycles: 20003205 heartbeat IPC: 4 cumulative IPC: 3.999 (Simulation time: 00 hr 33 min 46 sec)
Heartbeat CPU 7 instructions: 80000000 cycles: 20003323 heartbeat IPC: 4 cumulative IPC: 3.999 (Simulation time: 00 hr 33 min 46 sec)
Heartbeat CPU 5 instructions: 80000000 cycles: 20003843 heartbeat IPC: 4 cumulative IPC: 3.999 (Simulation time: 00 hr 33 min 46 sec)
Heartbeat CPU 2 instructions: 80000000 cycles: 21343078 heartbeat IPC: 3.918 cumulative IPC: 3.748 (Simulation time: 00 hr 36 min 00 sec)
Heartbeat CPU 0 instructions: 90000002 cycles: 22500086 heartbeat IPC: 4 cumulative IPC: 4 (Simulation time: 00 hr 37 min 57 sec)
Heartbeat CPU 1 instructions: 90000001 cycles: 22500314 heartbeat IPC: 4 cumulative IPC: 4 (Simulation time: 00 hr 37 min 57 sec)
Heartbeat CPU 3 instructions: 90000000 cycles: 22501318 heartbeat IPC: 4 cumulative IPC: 4 (Simulation time: 00 hr 37 min 57 sec)
Heartbeat CPU 6 instructions: 90000002 cycles: 22502517 heartbeat IPC: 4 cumulative IPC: 4 (Simulation time: 00 hr 37 min 57 sec)
Heartbeat CPU 4 instructions: 90000003 cycles: 22503205 heartbeat IPC: 4 cumulative IPC: 3.999 (Simulation time: 00 hr 37 min 57 sec)
Heartbeat CPU 7 instructions: 90000000 cycles: 22503323 heartbeat IPC: 4 cumulative IPC: 3.999 (Simulation time: 00 hr 37 min 57 sec)
Heartbeat CPU 5 instructions: 90000002 cycles: 22504031 heartbeat IPC: 4 cumulative IPC: 3.999 (Simulation time: 00 hr 37 min 57 sec)
Heartbeat CPU 2 instructions: 90000000 cycles: 23895407 heartbeat IPC: 3.918 cumulative IPC: 3.766 (Simulation time: 00 hr 40 min 20 sec)
Heartbeat CPU 0 instructions: 100000002 cycles: 25000086 heartbeat IPC: 4 cumulative IPC: 4 (Simulation time: 00 hr 42 min 12 sec)
Heartbeat CPU 1 instructions: 100000001 cycles: 25000314 heartbeat IPC: 4 cumulative IPC: 4 (Simulation time: 00 hr 42 min 12 sec)
Heartbeat CPU 3 instructions: 100000000 cycles: 25001318 heartbeat IPC: 4 cumulative IPC: 4 (Simulation time: 00 hr 42 min 12 sec)
Heartbeat CPU 6 instructions: 100000002 cycles: 25002881 heartbeat IPC: 3.999 cumulative IPC: 4 (Simulation time: 00 hr 42 min 12 sec)
Heartbeat CPU 5 instructions: 100000003 cycles: 25004225 heartbeat IPC: 4 cumulative IPC: 3.999 (Simulation time: 00 hr 42 min 12 sec)
Heartbeat CPU 7 instructions: 100000002 cycles: 25004449 heartbeat IPC: 3.998 cumulative IPC: 3.999 (Simulation time: 00 hr 42 min 12 sec)
Heartbeat CPU 4 instructions: 100000003 cycles: 25006601 heartbeat IPC: 3.995 cumulative IPC: 3.999 (Simulation time: 00 hr 42 min 12 sec)
Heartbeat CPU 2 instructions: 100000000 cycles: 26445703 heartbeat IPC: 3.921 cumulative IPC: 3.781 (Simulation time: 00 hr 44 min 38 sec)
Heartbeat CPU 0 instructions: 110000002 cycles: 27500086 heartbeat IPC: 4 cumulative IPC: 4 (Simulation time: 00 hr 46 min 24 sec)
Heartbeat CPU 1 instructions: 110000001 cycles: 27500314 heartbeat IPC: 4 cumulative IPC: 4 (Simulation time: 00 hr 46 min 24 sec)
Heartbeat CPU 3 instructions: 110000000 cycles: 27501318 heartbeat IPC: 4 cumulative IPC: 4 (Simulation time: 00 hr 46 min 24 sec)
Heartbeat CPU 6 instructions: 110000002 cycles: 27502881 heartbeat IPC: 4 cumulative IPC: 4 (Simulation time: 00 hr 46 min 25 sec)
Heartbeat CPU 5 instructions: 110000002 cycles: 27504448 heartbeat IPC: 4 cumulative IPC: 3.999 (Simulation time: 00 hr 46 min 25 sec)
Heartbeat CPU 7 instructions: 110000002 cycles: 27504449 heartbeat IPC: 4 cumulative IPC: 3.999 (Simulation time: 00 hr 46 min 25 sec)
Heartbeat CPU 4 instructions: 110000003 cycles: 27506601 heartbeat IPC: 4 cumulative IPC: 3.999 (Simulation time: 00 hr 46 min 25 sec)
Heartbeat CPU 2 instructions: 110000000 cycles: 28996323 heartbeat IPC: 3.921 cumulative IPC: 3.794 (Simulation time: 00 hr 48 min 56 sec)
Heartbeat CPU 0 instructions: 120000002 cycles: 30000086 heartbeat IPC: 4 cumulative IPC: 4 (Simulation time: 00 hr 50 min 37 sec)
Heartbeat CPU 1 instructions: 120000001 cycles: 30000314 heartbeat IPC: 4 cumulative IPC: 4 (Simulation time: 00 hr 50 min 37 sec)
Heartbeat CPU 3 instructions: 120000000 cycles: 30001318 heartbeat IPC: 4 cumulative IPC: 4 (Simulation time: 00 hr 50 min 37 sec)
Heartbeat CPU 6 instructions: 120000002 cycles: 30002881 heartbeat IPC: 4 cumulative IPC: 4 (Simulation time: 00 hr 50 min 37 sec)
Heartbeat CPU 7 instructions: 120000002 cycles: 30004449 heartbeat IPC: 4 cumulative IPC: 3.999 (Simulation time: 00 hr 50 min 38 sec)
Heartbeat CPU 5 instructions: 120000001 cycles: 30004638 heartbeat IPC: 4 cumulative IPC: 3.999 (Simulation time: 00 hr 50 min 38 sec)
Heartbeat CPU 4 instructions: 120000003 cycles: 30006601 heartbeat IPC: 4 cumulative IPC: 3.999 (Simulation time: 00 hr 50 min 38 sec)
Heartbeat CPU 2 instructions: 120000001 cycles: 31547061 heartbeat IPC: 3.92 cumulative IPC: 3.804 (Simulation time: 00 hr 53 min 13 sec)
Heartbeat CPU 0 instructions: 130000002 cycles: 32500086 heartbeat IPC: 4 cumulative IPC: 4 (Simulation time: 00 hr 54 min 50 sec)
Heartbeat CPU 1 instructions: 130000001 cycles: 32500314 heartbeat IPC: 4 cumulative IPC: 4 (Simulation time: 00 hr 54 min 50 sec)
Heartbeat CPU 3 instructions: 130000000 cycles: 32501318 heartbeat IPC: 4 cumulative IPC: 4 (Simulation time: 00 hr 54 min 50 sec)
Heartbeat CPU 6 instructions: 130000000 cycles: 32502978 heartbeat IPC: 4 cumulative IPC: 4 (Simulation time: 00 hr 54 min 50 sec)
Heartbeat CPU 7 instructions: 130000000 cycles: 32504464 heartbeat IPC: 4 cumulative IPC: 3.999 (Simulation time: 00 hr 54 min 50 sec)
Heartbeat CPU 5 instructions: 130000000 cycles: 32504828 heartbeat IPC: 4 cumulative IPC: 3.999 (Simulation time: 00 hr 54 min 51 sec)
Heartbeat CPU 4 instructions: 130000003 cycles: 32506631 heartbeat IPC: 4 cumulative IPC: 3.999 (Simulation time: 00 hr 54 min 51 sec)
Heartbeat CPU 2 instructions: 130000002 cycles: 34097969 heartbeat IPC: 3.92 cumulative IPC: 3.813 (Simulation time: 00 hr 57 min 32 sec)
Heartbeat CPU 0 instructions: 140000002 cycles: 35000086 heartbeat IPC: 4 cumulative IPC: 4 (Simulation time: 00 hr 59 min 03 sec)
Heartbeat CPU 1 instructions: 140000001 cycles: 35000314 heartbeat IPC: 4 cumulative IPC: 4 (Simulation time: 00 hr 59 min 03 sec)
Heartbeat CPU 3 instructions: 140000000 cycles: 35001318 heartbeat IPC: 4 cumulative IPC: 4 (Simulation time: 00 hr 59 min 04 sec)
Heartbeat CPU 6 instructions: 140000003 cycles: 35003035 heartbeat IPC: 4 cumulative IPC: 4 (Simulation time: 00 hr 59 min 04 sec)
Heartbeat CPU 7 instructions: 140000000 cycles: 35004464 heartbeat IPC: 4 cumulative IPC: 3.999 (Simulation time: 00 hr 59 min 04 sec)
Heartbeat CPU 5 instructions: 140000003 cycles: 35005264 heartbeat IPC: 3.999 cumulative IPC: 3.999 (Simulation time: 00 hr 59 min 04 sec)
Heartbeat CPU 4 instructions: 140000003 cycles: 35006631 heartbeat IPC: 4 cumulative IPC: 3.999 (Simulation time: 00 hr 59 min 04 sec)
Heartbeat CPU 2 instructions: 140000002 cycles: 36650007 heartbeat IPC: 3.918 cumulative IPC: 3.82 (Simulation time: 01 hr 01 min 51 sec)
Heartbeat CPU 0 instructions: 150000002 cycles: 37500086 heartbeat IPC: 4 cumulative IPC: 4 (Simulation time: 01 hr 03 min 18 sec)
Heartbeat CPU 1 instructions: 150000001 cycles: 37500314 heartbeat IPC: 4 cumulative IPC: 4 (Simulation time: 01 hr 03 min 18 sec)
Heartbeat CPU 3 instructions: 150000000 cycles: 37501318 heartbeat IPC: 4 cumulative IPC: 4 (Simulation time: 01 hr 03 min 18 sec)
Heartbeat CPU 6 instructions: 150000003 cycles: 37503035 heartbeat IPC: 4 cumulative IPC: 4 (Simulation time: 01 hr 03 min 18 sec)
Heartbeat CPU 7 instructions: 150000000 cycles: 37504464 heartbeat IPC: 4 cumulative IPC: 4 (Simulation time: 01 hr 03 min 18 sec)
Heartbeat CPU 5 instructions: 150000002 cycles: 37505474 heartbeat IPC: 4 cumulative IPC: 3.999 (Simulation time: 01 hr 03 min 18 sec)
Heartbeat CPU 4 instructions: 150000003 cycles: 37506631 heartbeat IPC: 4 cumulative IPC: 3.999 (Simulation time: 01 hr 03 min 18 sec)
Heartbeat CPU 2 instructions: 150000002 cycles: 39199746 heartbeat IPC: 3.922 cumulative IPC: 3.827 (Simulation time: 01 hr 06 min 11 sec)
Heartbeat CPU 0 instructions: 160000002 cycles: 40000086 heartbeat IPC: 4 cumulative IPC: 4 (Simulation time: 01 hr 07 min 33 sec)
Heartbeat CPU 1 instructions: 160000001 cycles: 40000314 heartbeat IPC: 4 cumulative IPC: 4 (Simulation time: 01 hr 07 min 33 sec)
Heartbeat CPU 3 instructions: 160000001 cycles: 40001692 heartbeat IPC: 3.999 cumulative IPC: 4 (Simulation time: 01 hr 07 min 33 sec)
Heartbeat CPU 6 instructions: 160000003 cycles: 40003035 heartbeat IPC: 4 cumulative IPC: 4 (Simulation time: 01 hr 07 min 33 sec)
Heartbeat CPU 7 instructions: 160000003 cycles: 40004940 heartbeat IPC: 3.999 cumulative IPC: 4 (Simulation time: 01 hr 07 min 33 sec)
Heartbeat CPU 5 instructions: 160000000 cycles: 40005653 heartbeat IPC: 4 cumulative IPC: 3.999 (Simulation time: 01 hr 07 min 34 sec)
Heartbeat CPU 4 instructions: 160000003 cycles: 40007019 heartbeat IPC: 3.999 cumulative IPC: 3.999 (Simulation time: 01 hr 07 min 34 sec)
Heartbeat CPU 2 instructions: 160000002 cycles: 41751623 heartbeat IPC: 3.919 cumulative IPC: 3.832 (Simulation time: 01 hr 10 min 29 sec)
Heartbeat CPU 0 instructions: 170000002 cycles: 42500086 heartbeat IPC: 4 cumulative IPC: 4 (Simulation time: 01 hr 11 min 42 sec)
Heartbeat CPU 1 instructions: 170000001 cycles: 42500314 heartbeat IPC: 4 cumulative IPC: 4 (Simulation time: 01 hr 11 min 42 sec)
Heartbeat CPU 3 instructions: 170000001 cycles: 42501692 heartbeat IPC: 4 cumulative IPC: 4 (Simulation time: 01 hr 11 min 42 sec)
Heartbeat CPU 6 instructions: 170000000 cycles: 42503393 heartbeat IPC: 3.999 cumulative IPC: 4 (Simulation time: 01 hr 11 min 42 sec)
Heartbeat CPU 7 instructions: 170000003 cycles: 42504940 heartbeat IPC: 4 cumulative IPC: 4 (Simulation time: 01 hr 11 min 43 sec)
Heartbeat CPU 5 instructions: 170000002 cycles: 42505839 heartbeat IPC: 4 cumulative IPC: 3.999 (Simulation time: 01 hr 11 min 43 sec)
Heartbeat CPU 4 instructions: 170000003 cycles: 42507019 heartbeat IPC: 4 cumulative IPC: 3.999 (Simulation time: 01 hr 11 min 43 sec)
Heartbeat CPU 2 instructions: 170000000 cycles: 44301816 heartbeat IPC: 3.921 cumulative IPC: 3.837 (Simulation time: 01 hr 14 min 38 sec)
Heartbeat CPU 0 instructions: 180000002 cycles: 45000086 heartbeat IPC: 4 cumulative IPC: 4 (Simulation time: 01 hr 15 min 47 sec)
Heartbeat CPU 1 instructions: 180000001 cycles: 45000314 heartbeat IPC: 4 cumulative IPC: 4 (Simulation time: 01 hr 15 min 47 sec)
Heartbeat CPU 3 instructions: 180000001 cycles: 45001692 heartbeat IPC: 4 cumulative IPC: 4 (Simulation time: 01 hr 15 min 47 sec)
Heartbeat CPU 6 instructions: 180000000 cycles: 45003393 heartbeat IPC: 4 cumulative IPC: 4 (Simulation time: 01 hr 15 min 47 sec)
Heartbeat CPU 7 instructions: 180000003 cycles: 45004940 heartbeat IPC: 4 cumulative IPC: 4 (Simulation time: 01 hr 15 min 47 sec)
Heartbeat CPU 5 instructions: 180000002 cycles: 45006037 heartbeat IPC: 4 cumulative IPC: 3.999 (Simulation time: 01 hr 15 min 47 sec)
Heartbeat CPU 4 instructions: 180000003 cycles: 45007019 heartbeat IPC: 4 cumulative IPC: 3.999 (Simulation time: 01 hr 15 min 48 sec)
Heartbeat CPU 2 instructions: 180000000 cycles: 46852280 heartbeat IPC: 3.921 cumulative IPC: 3.842 (Simulation time: 01 hr 18 min 49 sec)
Heartbeat CPU 0 instructions: 190000002 cycles: 47500086 heartbeat IPC: 4 cumulative IPC: 4 (Simulation time: 01 hr 19 min 52 sec)
Heartbeat CPU 1 instructions: 190000001 cycles: 47500314 heartbeat IPC: 4 cumulative IPC: 4 (Simulation time: 01 hr 19 min 52 sec)
Heartbeat CPU 3 instructions: 190000001 cycles: 47501692 heartbeat IPC: 4 cumulative IPC: 4 (Simulation time: 01 hr 19 min 52 sec)
Heartbeat CPU 6 instructions: 190000000 cycles: 47503393 heartbeat IPC: 4 cumulative IPC: 4 (Simulation time: 01 hr 19 min 52 sec)
Heartbeat CPU 7 instructions: 190000001 cycles: 47505001 heartbeat IPC: 4 cumulative IPC: 4 (Simulation time: 01 hr 19 min 52 sec)
Heartbeat CPU 5 instructions: 190000001 cycles: 47506220 heartbeat IPC: 4 cumulative IPC: 3.999 (Simulation time: 01 hr 19 min 52 sec)
Heartbeat CPU 4 instructions: 190000003 cycles: 47507019 heartbeat IPC: 4 cumulative IPC: 3.999 (Simulation time: 01 hr 19 min 53 sec)
Heartbeat CPU 2 instructions: 190000000 cycles: 49403875 heartbeat IPC: 3.919 cumulative IPC: 3.846 (Simulation time: 01 hr 22 min 57 sec)
Heartbeat CPU 0 instructions: 200000002 cycles: 50000086 heartbeat IPC: 4 cumulative IPC: 4 (Simulation time: 01 hr 23 min 55 sec)
Warmup finished CPU 0 instructions: 200000002 cycles: 50000087 cumulative IPC: 4 (Simulation time: 01 hr 23 min 55 sec)
Heartbeat CPU 1 instructions: 200000001 cycles: 50000314 heartbeat IPC: 4 cumulative IPC: 4 (Simulation time: 01 hr 23 min 55 sec)
Warmup finished CPU 1 instructions: 200000001 cycles: 50000315 cumulative IPC: 4 (Simulation time: 01 hr 23 min 55 sec)
Heartbeat CPU 3 instructions: 200000001 cycles: 50001692 heartbeat IPC: 4 cumulative IPC: 4 (Simulation time: 01 hr 23 min 55 sec)
Warmup finished CPU 3 instructions: 200000001 cycles: 50001693 cumulative IPC: 4 (Simulation time: 01 hr 23 min 55 sec)
Heartbeat CPU 6 instructions: 200000001 cycles: 50003448 heartbeat IPC: 4 cumulative IPC: 4 (Simulation time: 01 hr 23 min 55 sec)
Warmup finished CPU 6 instructions: 200000001 cycles: 50003449 cumulative IPC: 4 (Simulation time: 01 hr 23 min 55 sec)
Heartbeat CPU 7 instructions: 200000001 cycles: 50005001 heartbeat IPC: 4 cumulative IPC: 4 (Simulation time: 01 hr 23 min 55 sec)
Warmup finished CPU 7 instructions: 200000001 cycles: 50005002 cumulative IPC: 4 (Simulation time: 01 hr 23 min 55 sec)
Heartbeat CPU 5 instructions: 200000001 cycles: 50006586 heartbeat IPC: 3.999 cumulative IPC: 3.999 (Simulation time: 01 hr 23 min 56 sec)
Warmup finished CPU 5 instructions: 200000001 cycles: 50006587 cumulative IPC: 3.999 (Simulation time: 01 hr 23 min 56 sec)
Heartbeat CPU 4 instructions: 200000003 cycles: 50007019 heartbeat IPC: 4 cumulative IPC: 3.999 (Simulation time: 01 hr 23 min 56 sec)
Warmup finished CPU 4 instructions: 200000003 cycles: 50007020 cumulative IPC: 3.999 (Simulation time: 01 hr 23 min 56 sec)
Heartbeat CPU 2 instructions: 200000000 cycles: 51954345 heartbeat IPC: 3.921 cumulative IPC: 3.85 (Simulation time: 01 hr 27 min 05 sec)
Warmup finished CPU 2 instructions: 200000000 cycles: 51954346 cumulative IPC: 3.85 (Simulation time: 01 hr 27 min 05 sec)
Warmup complete CPU 0 instructions: 207817038 cycles: 51954346 cumulative IPC: 4 (Simulation time: 01 hr 27 min 05 sec)
Warmup complete CPU 1 instructions: 207816125 cycles: 51954346 cumulative IPC: 4 (Simulation time: 01 hr 27 min 05 sec)
Warmup complete CPU 2 instructions: 200000000 cycles: 51954346 cumulative IPC: 3.85 (Simulation time: 01 hr 27 min 05 sec)
Warmup complete CPU 3 instructions: 207810613 cycles: 51954346 cumulative IPC: 4 (Simulation time: 01 hr 27 min 05 sec)
Warmup complete CPU 4 instructions: 207789307 cycles: 51954346 cumulative IPC: 3.999 (Simulation time: 01 hr 27 min 05 sec)
Warmup complete CPU 5 instructions: 207791037 cycles: 51954346 cumulative IPC: 3.999 (Simulation time: 01 hr 27 min 05 sec)
Warmup complete CPU 6 instructions: 207803589 cycles: 51954346 cumulative IPC: 4 (Simulation time: 01 hr 27 min 05 sec)
Warmup complete CPU 7 instructions: 207797377 cycles: 51954346 cumulative IPC: 4 (Simulation time: 01 hr 27 min 05 sec)
Heartbeat CPU 6 instructions: 210000000 cycles: 52632413 heartbeat IPC: 3.804 cumulative IPC: 3.239 (Simulation time: 01 hr 27 min 51 sec)
Heartbeat CPU 5 instructions: 210000003 cycles: 53008529 heartbeat IPC: 3.331 cumulative IPC: 2.095 (Simulation time: 01 hr 28 min 17 sec)
Heartbeat CPU 1 instructions: 210000002 cycles: 53062514 heartbeat IPC: 3.266 cumulative IPC: 1.971 (Simulation time: 01 hr 28 min 21 sec)
Heartbeat CPU 0 instructions: 210000001 cycles: 53675636 heartbeat IPC: 2.721 cumulative IPC: 1.268 (Simulation time: 01 hr 29 min 03 sec)
Heartbeat CPU 4 instructions: 210000003 cycles: 53954783 heartbeat IPC: 2.533 cumulative IPC: 1.105 (Simulation time: 01 hr 29 min 23 sec)
Heartbeat CPU 3 instructions: 210000000 cycles: 53979160 heartbeat IPC: 2.514 cumulative IPC: 1.081 (Simulation time: 01 hr 29 min 24 sec)
Heartbeat CPU 7 instructions: 210000002 cycles: 54002774 heartbeat IPC: 2.501 cumulative IPC: 1.075 (Simulation time: 01 hr 29 min 26 sec)
Heartbeat CPU 6 instructions: 220000001 cycles: 55796599 heartbeat IPC: 3.16 cumulative IPC: 3.174 (Simulation time: 01 hr 31 min 29 sec)
Heartbeat CPU 5 instructions: 220000000 cycles: 57675236 heartbeat IPC: 2.143 cumulative IPC: 2.134 (Simulation time: 01 hr 33 min 39 sec)
Heartbeat CPU 1 instructions: 220000000 cycles: 58141914 heartbeat IPC: 1.969 cumulative IPC: 1.969 (Simulation time: 01 hr 34 min 11 sec)
Heartbeat CPU 6 instructions: 230000002 cycles: 58835263 heartbeat IPC: 3.291 cumulative IPC: 3.226 (Simulation time: 01 hr 34 min 59 sec)
Heartbeat CPU 2 instructions: 210000003 cycles: 60562563 heartbeat IPC: 1.162 cumulative IPC: 1.162 (Simulation time: 01 hr 36 min 56 sec)
Heartbeat CPU 0 instructions: 220000001 cycles: 61717105 heartbeat IPC: 1.244 cumulative IPC: 1.248 (Simulation time: 01 hr 38 min 15 sec)
Heartbeat CPU 6 instructions: 240000000 cycles: 61926778 heartbeat IPC: 3.235 cumulative IPC: 3.229 (Simulation time: 01 hr 38 min 29 sec)
Heartbeat CPU 5 instructions: 230000000 cycles: 62379029 heartbeat IPC: 2.126 cumulative IPC: 2.13 (Simulation time: 01 hr 39 min 01 sec)
Heartbeat CPU 1 instructions: 230000003 cycles: 63182818 heartbeat IPC: 1.984 cumulative IPC: 1.976 (Simulation time: 01 hr 39 min 56 sec)
Heartbeat CPU 3 instructions: 220000003 cycles: 63209079 heartbeat IPC: 1.083 cumulative IPC: 1.083 (Simulation time: 01 hr 39 min 58 sec)
Heartbeat CPU 7 instructions: 220000001 cycles: 63228424 heartbeat IPC: 1.084 cumulative IPC: 1.082 (Simulation time: 01 hr 39 min 59 sec)
Heartbeat CPU 4 instructions: 220000002 cycles: 63602291 heartbeat IPC: 1.037 cumulative IPC: 1.048 (Simulation time: 01 hr 40 min 24 sec)
Heartbeat CPU 6 instructions: 250000001 cycles: 65114194 heartbeat IPC: 3.137 cumulative IPC: 3.206 (Simulation time: 01 hr 42 min 07 sec)
Heartbeat CPU 5 instructions: 240000000 cycles: 67091463 heartbeat IPC: 2.122 cumulative IPC: 2.128 (Simulation time: 01 hr 44 min 23 sec)
Heartbeat CPU 6 instructions: 260000002 cycles: 68254416 heartbeat IPC: 3.184 cumulative IPC: 3.202 (Simulation time: 01 hr 45 min 43 sec)
Heartbeat CPU 1 instructions: 240000001 cycles: 68266540 heartbeat IPC: 1.967 cumulative IPC: 1.973 (Simulation time: 01 hr 45 min 43 sec)
Heartbeat CPU 2 instructions: 220000000 cycles: 69216089 heartbeat IPC: 1.156 cumulative IPC: 1.159 (Simulation time: 01 hr 46 min 49 sec)
Heartbeat CPU 0 instructions: 230000001 cycles: 70289668 heartbeat IPC: 1.167 cumulative IPC: 1.21 (Simulation time: 01 hr 48 min 03 sec)
Heartbeat CPU 6 instructions: 270000003 cycles: 71266746 heartbeat IPC: 3.32 cumulative IPC: 3.221 (Simulation time: 01 hr 49 min 11 sec)
Heartbeat CPU 5 instructions: 250000001 cycles: 71802520 heartbeat IPC: 2.123 cumulative IPC: 2.127 (Simulation time: 01 hr 49 min 48 sec)
Heartbeat CPU 3 instructions: 230000001 cycles: 72505762 heartbeat IPC: 1.076 cumulative IPC: 1.08 (Simulation time: 01 hr 50 min 37 sec)
Heartbeat CPU 4 instructions: 230000001 cycles: 72530391 heartbeat IPC: 1.12 cumulative IPC: 1.079 (Simulation time: 01 hr 50 min 39 sec)
Heartbeat CPU 7 instructions: 230000001 cycles: 72530942 heartbeat IPC: 1.075 cumulative IPC: 1.079 (Simulation time: 01 hr 50 min 39 sec)
Heartbeat CPU 1 instructions: 250000000 cycles: 73332043 heartbeat IPC: 1.974 cumulative IPC: 1.973 (Simulation time: 01 hr 51 min 34 sec)
Heartbeat CPU 6 instructions: 280000000 cycles: 74210591 heartbeat IPC: 3.397 cumulative IPC: 3.244 (Simulation time: 01 hr 52 min 36 sec)
Heartbeat CPU 5 instructions: 260000000 cycles: 76542761 heartbeat IPC: 2.11 cumulative IPC: 2.123 (Simulation time: 01 hr 55 min 17 sec)
Heartbeat CPU 6 instructions: 290000000 cycles: 77297720 heartbeat IPC: 3.239 cumulative IPC: 3.243 (Simulation time: 01 hr 56 min 09 sec)
Heartbeat CPU 2 instructions: 230000000 cycles: 77796750 heartbeat IPC: 1.165 cumulative IPC: 1.161 (Simulation time: 01 hr 56 min 44 sec)
Heartbeat CPU 0 instructions: 240000002 cycles: 77852939 heartbeat IPC: 1.322 cumulative IPC: 1.243 (Simulation time: 01 hr 56 min 48 sec)
Heartbeat CPU 1 instructions: 260000003 cycles: 78413180 heartbeat IPC: 1.968 cumulative IPC: 1.972 (Simulation time: 01 hr 57 min 26 sec)
Heartbeat CPU 6 instructions: 300000000 cycles: 80549058 heartbeat IPC: 3.076 cumulative IPC: 3.224 (Simulation time: 01 hr 59 min 52 sec)
Heartbeat CPU 5 instructions: 270000000 cycles: 81276392 heartbeat IPC: 2.113 cumulative IPC: 2.122 (Simulation time: 02 hr 00 min 42 sec)
Heartbeat CPU 4 instructions: 240000003 cycles: 81635629 heartbeat IPC: 1.098 cumulative IPC: 1.085 (Simulation time: 02 hr 01 min 07 sec)
Heartbeat CPU 3 instructions: 240000001 cycles: 81787756 heartbeat IPC: 1.077 cumulative IPC: 1.079 (Simulation time: 02 hr 01 min 17 sec)
Heartbeat CPU 7 instructions: 240000001 cycles: 81836379 heartbeat IPC: 1.075 cumulative IPC: 1.078 (Simulation time: 02 hr 01 min 20 sec)
Heartbeat CPU 1 instructions: 270000001 cycles: 83488397 heartbeat IPC: 1.97 cumulative IPC: 1.972 (Simulation time: 02 hr 03 min 10 sec)
Heartbeat CPU 6 instructions: 310000001 cycles: 84099911 heartbeat IPC: 2.816 cumulative IPC: 3.179 (Simulation time: 02 hr 03 min 51 sec)
Heartbeat CPU 0 instructions: 250000002 cycles: 85709188 heartbeat IPC: 1.273 cumulative IPC: 1.25 (Simulation time: 02 hr 05 min 38 sec)
Heartbeat CPU 5 instructions: 280000001 cycles: 85988851 heartbeat IPC: 2.122 cumulative IPC: 2.122 (Simulation time: 02 hr 05 min 57 sec)
Heartbeat CPU 2 instructions: 240000002 cycles: 86492255 heartbeat IPC: 1.15 cumulative IPC: 1.158 (Simulation time: 02 hr 06 min 32 sec)
Heartbeat CPU 6 instructions: 320000001 cycles: 87299226 heartbeat IPC: 3.126 cumulative IPC: 3.174 (Simulation time: 02 hr 07 min 28 sec)
Heartbeat CPU 1 instructions: 280000000 cycles: 88612530 heartbeat IPC: 1.952 cumulative IPC: 1.969 (Simulation time: 02 hr 08 min 58 sec)
Heartbeat CPU 6 instructions: 330000002 cycles: 90383220 heartbeat IPC: 3.243 cumulative IPC: 3.18 (Simulation time: 02 hr 11 min 00 sec)
Heartbeat CPU 5 instructions: 290000001 cycles: 90718315 heartbeat IPC: 2.114 cumulative IPC: 2.121 (Simulation time: 02 hr 11 min 23 sec)
Heartbeat CPU 3 instructions: 250000001 cycles: 90875533 heartbeat IPC: 1.1 cumulative IPC: 1.084 (Simulation time: 02 hr 11 min 34 sec)
Heartbeat CPU 7 instructions: 250000001 cycles: 90955412 heartbeat IPC: 1.097 cumulative IPC: 1.082 (Simulation time: 02 hr 11 min 39 sec)
Heartbeat CPU 4 instructions: 250000002 cycles: 91606797 heartbeat IPC: 1.003 cumulative IPC: 1.065 (Simulation time: 02 hr 12 min 24 sec)
Heartbeat CPU 6 instructions: 340000002 cycles: 93417834 heartbeat IPC: 3.295 cumulative IPC: 3.188 (Simulation time: 02 hr 14 min 28 sec)
Heartbeat CPU 0 instructions: 260000002 cycles: 93638998 heartbeat IPC: 1.261 cumulative IPC: 1.252 (Simulation time: 02 hr 14 min 43 sec)
Heartbeat CPU 1 instructions: 290000000 cycles: 93742122 heartbeat IPC: 1.949 cumulative IPC: 1.967 (Simulation time: 02 hr 14 min 50 sec)
Heartbeat CPU 2 instructions: 250000001 cycles: 95111420 heartbeat IPC: 1.16 cumulative IPC: 1.159 (Simulation time: 02 hr 16 min 24 sec)
Heartbeat CPU 5 instructions: 300000001 cycles: 95442899 heartbeat IPC: 2.117 cumulative IPC: 2.12 (Simulation time: 02 hr 16 min 46 sec)
Heartbeat CPU 6 instructions: 350000001 cycles: 96579810 heartbeat IPC: 3.163 cumulative IPC: 3.186 (Simulation time: 02 hr 18 min 04 sec)
Heartbeat CPU 1 instructions: 300000003 cycles: 98911992 heartbeat IPC: 1.934 cumulative IPC: 1.963 (Simulation time: 02 hr 20 min 43 sec)
Heartbeat CPU 6 instructions: 360000003 cycles: 99821856 heartbeat IPC: 3.084 cumulative IPC: 3.18 (Simulation time: 02 hr 21 min 45 sec)
Heartbeat CPU 5 instructions: 310000001 cycles: 100147246 heartbeat IPC: 2.126 cumulative IPC: 2.121 (Simulation time: 02 hr 22 min 07 sec)
Heartbeat CPU 3 instructions: 260000001 cycles: 100162808 heartbeat IPC: 1.077 cumulative IPC: 1.083 (Simulation time: 02 hr 22 min 08 sec)
Heartbeat CPU 7 instructions: 260000001 cycles: 100237190 heartbeat IPC: 1.077 cumulative IPC: 1.081 (Simulation time: 02 hr 22 min 13 sec)
Heartbeat CPU 4 instructions: 260000002 cycles: 100533314 heartbeat IPC: 1.12 cumulative IPC: 1.075 (Simulation time: 02 hr 22 min 33 sec)
Heartbeat CPU 0 instructions: 270000003 cycles: 101376889 heartbeat IPC: 1.292 cumulative IPC: 1.258 (Simulation time: 02 hr 23 min 32 sec)
Heartbeat CPU 6 instructions: 370000000 cycles: 102705847 heartbeat IPC: 3.467 cumulative IPC: 3.196 (Simulation time: 02 hr 25 min 06 sec)
Heartbeat CPU 2 instructions: 260000003 cycles: 103666713 heartbeat IPC: 1.169 cumulative IPC: 1.16 (Simulation time: 02 hr 26 min 13 sec)
Heartbeat CPU 1 instructions: 310000000 cycles: 104141419 heartbeat IPC: 1.912 cumulative IPC: 1.958 (Simulation time: 02 hr 26 min 46 sec)
Heartbeat CPU 5 instructions: 320000001 cycles: 104897241 heartbeat IPC: 2.105 cumulative IPC: 2.119 (Simulation time: 02 hr 27 min 38 sec)
Heartbeat CPU 6 instructions: 380000001 cycles: 105687842 heartbeat IPC: 3.353 cumulative IPC: 3.205 (Simulation time: 02 hr 28 min 32 sec)
Heartbeat CPU 3 instructions: 270000002 cycles: 108652884 heartbeat IPC: 1.178 cumulative IPC: 1.097 (Simulation time: 02 hr 31 min 57 sec)
Heartbeat CPU 7 instructions: 270000002 cycles: 108727188 heartbeat IPC: 1.178 cumulative IPC: 1.096 (Simulation time: 02 hr 32 min 02 sec)
Heartbeat CPU 6 instructions: 390000002 cycles: 108878862 heartbeat IPC: 3.134 cumulative IPC: 3.201 (Simulation time: 02 hr 32 min 12 sec)
Heartbeat CPU 0 instructions: 280000000 cycles: 109039893 heartbeat IPC: 1.305 cumulative IPC: 1.264 (Simulation time: 02 hr 32 min 24 sec)
Heartbeat CPU 4 instructions: 270000002 cycles: 109090999 heartbeat IPC: 1.169 cumulative IPC: 1.089 (Simulation time: 02 hr 32 min 27 sec)
Heartbeat CPU 1 instructions: 320000003 cycles: 109336987 heartbeat IPC: 1.925 cumulative IPC: 1.955 (Simulation time: 02 hr 32 min 45 sec)
Heartbeat CPU 5 instructions: 330000000 cycles: 109620640 heartbeat IPC: 2.117 cumulative IPC: 2.119 (Simulation time: 02 hr 33 min 04 sec)
Heartbeat CPU 2 instructions: 270000001 cycles: 111691283 heartbeat IPC: 1.246 cumulative IPC: 1.172 (Simulation time: 02 hr 35 min 26 sec)
Heartbeat CPU 6 instructions: 400000001 cycles: 111988198 heartbeat IPC: 3.216 cumulative IPC: 3.201 (Simulation time: 02 hr 35 min 47 sec)
Simulation finished CPU 6 instructions: 200000000 cycles: 62408360 cumulative IPC: 3.205 (Simulation time: 02 hr 38 min 33 sec)
Heartbeat CPU 5 instructions: 340000003 cycles: 114760830 heartbeat IPC: 1.945 cumulative IPC: 2.105 (Simulation time: 02 hr 39 min 00 sec)
Heartbeat CPU 1 instructions: 330000003 cycles: 114899347 heartbeat IPC: 1.798 cumulative IPC: 1.941 (Simulation time: 02 hr 39 min 10 sec)
Heartbeat CPU 6 instructions: 410000000 cycles: 115057893 heartbeat IPC: 3.258 cumulative IPC: 3.204 (Simulation time: 02 hr 39 min 21 sec)
Heartbeat CPU 0 instructions: 290000001 cycles: 117209020 heartbeat IPC: 1.224 cumulative IPC: 1.259 (Simulation time: 02 hr 41 min 53 sec)
Heartbeat CPU 3 instructions: 280000001 cycles: 117495786 heartbeat IPC: 1.131 cumulative IPC: 1.101 (Simulation time: 02 hr 42 min 13 sec)
Heartbeat CPU 7 instructions: 280000001 cycles: 117554815 heartbeat IPC: 1.133 cumulative IPC: 1.101 (Simulation time: 02 hr 42 min 17 sec)
Heartbeat CPU 4 instructions: 280000001 cycles: 117891892 heartbeat IPC: 1.136 cumulative IPC: 1.095 (Simulation time: 02 hr 42 min 41 sec)
Heartbeat CPU 6 instructions: 420000001 cycles: 118120172 heartbeat IPC: 3.266 cumulative IPC: 3.207 (Simulation time: 02 hr 42 min 57 sec)
Heartbeat CPU 5 instructions: 350000000 cycles: 119504488 heartbeat IPC: 2.108 cumulative IPC: 2.105 (Simulation time: 02 hr 44 min 35 sec)
Heartbeat CPU 1 instructions: 340000001 cycles: 119944351 heartbeat IPC: 1.982 cumulative IPC: 1.944 (Simulation time: 02 hr 45 min 06 sec)
Heartbeat CPU 2 instructions: 280000002 cycles: 120433420 heartbeat IPC: 1.144 cumulative IPC: 1.168 (Simulation time: 02 hr 45 min 42 sec)
Heartbeat CPU 6 instructions: 430000001 cycles: 121132003 heartbeat IPC: 3.32 cumulative IPC: 3.212 (Simulation time: 02 hr 46 min 30 sec)
Heartbeat CPU 5 instructions: 360000000 cycles: 124146473 heartbeat IPC: 2.154 cumulative IPC: 2.108 (Simulation time: 02 hr 50 min 01 sec)
Heartbeat CPU 6 instructions: 440000000 cycles: 124355976 heartbeat IPC: 3.102 cumulative IPC: 3.207 (Simulation time: 02 hr 50 min 16 sec)
Heartbeat CPU 0 instructions: 300000002 cycles: 124698989 heartbeat IPC: 1.335 cumulative IPC: 1.267 (Simulation time: 02 hr 50 min 41 sec)
Heartbeat CPU 1 instructions: 350000002 cycles: 125016648 heartbeat IPC: 1.971 cumulative IPC: 1.946 (Simulation time: 02 hr 51 min 03 sec)
Heartbeat CPU 3 instructions: 290000001 cycles: 126903157 heartbeat IPC: 1.063 cumulative IPC: 1.097 (Simulation time: 02 hr 53 min 18 sec)
Heartbeat CPU 7 instructions: 290000003 cycles: 126964928 heartbeat IPC: 1.063 cumulative IPC: 1.096 (Simulation time: 02 hr 53 min 22 sec)
Heartbeat CPU 4 instructions: 290000000 cycles: 127142291 heartbeat IPC: 1.081 cumulative IPC: 1.093 (Simulation time: 02 hr 53 min 35 sec)
Heartbeat CPU 6 instructions: 450000000 cycles: 127149543 heartbeat IPC: 3.58 cumulative IPC: 3.221 (Simulation time: 02 hr 53 min 35 sec)
Heartbeat CPU 5 instructions: 370000003 cycles: 128716408 heartbeat IPC: 2.188 cumulative IPC: 2.113 (Simulation time: 02 hr 55 min 25 sec)
Heartbeat CPU 2 instructions: 290000002 cycles: 129136409 heartbeat IPC: 1.149 cumulative IPC: 1.166 (Simulation time: 02 hr 55 min 55 sec)
Heartbeat CPU 1 instructions: 360000000 cycles: 130036974 heartbeat IPC: 1.992 cumulative IPC: 1.949 (Simulation time: 02 hr 56 min 58 sec)
Heartbeat CPU 6 instructions: 460000003 cycles: 130286181 heartbeat IPC: 3.188 cumulative IPC: 3.22 (Simulation time: 02 hr 57 min 16 sec)
Heartbeat CPU 0 instructions: 310000002 cycles: 132724833 heartbeat IPC: 1.246 cumulative IPC: 1.265 (Simulation time: 02 hr 59 min 59 sec)
Heartbeat CPU 5 instructions: 380000001 cycles: 133294522 heartbeat IPC: 2.184 cumulative IPC: 2.117 (Simulation time: 03 hr 00 min 34 sec)
Heartbeat CPU 1 instructions: 370000003 cycles: 135128838 heartbeat IPC: 1.964 cumulative IPC: 1.95 (Simulation time: 03 hr 02 min 27 sec)
Heartbeat CPU 3 instructions: 300000003 cycles: 137291994 heartbeat IPC: 0.9626 cumulative IPC: 1.08 (Simulation time: 03 hr 04 min 37 sec)
Heartbeat CPU 7 instructions: 300000001 cycles: 137419322 heartbeat IPC: 0.9565 cumulative IPC: 1.079 (Simulation time: 03 hr 04 min 44 sec)
Heartbeat CPU 4 instructions: 300000002 cycles: 138211028 heartbeat IPC: 0.9034 cumulative IPC: 1.069 (Simulation time: 03 hr 05 min 29 sec)
Heartbeat CPU 2 instructions: 300000001 cycles: 138968516 heartbeat IPC: 1.017 cumulative IPC: 1.149 (Simulation time: 03 hr 06 min 10 sec)
Heartbeat CPU 6 instructions: 470000000 cycles: 139967627 heartbeat IPC: 1.033 cumulative IPC: 2.979 (Simulation time: 03 hr 07 min 09 sec)
Heartbeat CPU 1 instructions: 380000000 cycles: 140299772 heartbeat IPC: 1.934 cumulative IPC: 1.949 (Simulation time: 03 hr 07 min 31 sec)
Heartbeat CPU 0 instructions: 320000002 cycles: 142034999 heartbeat IPC: 1.074 cumulative IPC: 1.245 (Simulation time: 03 hr 09 min 09 sec)
Heartbeat CPU 5 instructions: 390000001 cycles: 144555896 heartbeat IPC: 0.888 cumulative IPC: 1.968 (Simulation time: 03 hr 11 min 40 sec)
Heartbeat CPU 1 instructions: 390000000 cycles: 145421185 heartbeat IPC: 1.953 cumulative IPC: 1.949 (Simulation time: 03 hr 12 min 39 sec)
Heartbeat CPU 6 instructions: 480000002 cycles: 146999416 heartbeat IPC: 1.422 cumulative IPC: 2.864 (Simulation time: 03 hr 14 min 27 sec)
Heartbeat CPU 5 instructions: 400000003 cycles: 148720782 heartbeat IPC: 2.401 cumulative IPC: 1.986 (Simulation time: 03 hr 16 min 29 sec)
Heartbeat CPU 2 instructions: 310000003 cycles: 149421195 heartbeat IPC: 0.9567 cumulative IPC: 1.129 (Simulation time: 03 hr 17 min 19 sec)
Heartbeat CPU 4 instructions: 310000003 cycles: 150267992 heartbeat IPC: 0.8294 cumulative IPC: 1.04 (Simulation time: 03 hr 18 min 17 sec)
Heartbeat CPU 3 instructions: 310000001 cycles: 150339901 heartbeat IPC: 0.7664 cumulative IPC: 1.039 (Simulation time: 03 hr 18 min 21 sec)
Heartbeat CPU 7 instructions: 310000003 cycles: 150387669 heartbeat IPC: 0.7711 cumulative IPC: 1.038 (Simulation time: 03 hr 18 min 25 sec)
Heartbeat CPU 1 instructions: 400000000 cycles: 150480440 heartbeat IPC: 1.977 cumulative IPC: 1.951 (Simulation time: 03 hr 18 min 31 sec)
Heartbeat CPU 0 instructions: 330000000 cycles: 150542436 heartbeat IPC: 1.175 cumulative IPC: 1.239 (Simulation time: 03 hr 18 min 35 sec)
Heartbeat CPU 6 instructions: 490000002 cycles: 150647824 heartbeat IPC: 2.741 cumulative IPC: 2.859 (Simulation time: 03 hr 18 min 43 sec)
Simulation finished CPU 5 instructions: 200000003 cycles: 100116567 cumulative IPC: 1.998 (Simulation time: 03 hr 20 min 23 sec)
Heartbeat CPU 5 instructions: 410000002 cycles: 152964945 heartbeat IPC: 2.356 cumulative IPC: 2.002 (Simulation time: 03 hr 21 min 25 sec)
Simulation finished CPU 1 instructions: 200000000 cycles: 102492744 cumulative IPC: 1.951 (Simulation time: 03 hr 23 min 07 sec)
Heartbeat CPU 6 instructions: 500000000 cycles: 154595668 heartbeat IPC: 2.533 cumulative IPC: 2.847 (Simulation time: 03 hr 23 min 17 sec)
Heartbeat CPU 1 instructions: 410000000 cycles: 155564902 heartbeat IPC: 1.967 cumulative IPC: 1.951 (Simulation time: 03 hr 24 min 23 sec)
Heartbeat CPU 5 instructions: 420000002 cycles: 157280459 heartbeat IPC: 2.317 cumulative IPC: 2.015 (Simulation time: 03 hr 26 min 19 sec)
Heartbeat CPU 0 instructions: 340000002 cycles: 158553326 heartbeat IPC: 1.248 cumulative IPC: 1.24 (Simulation time: 03 hr 27 min 37 sec)
Heartbeat CPU 2 instructions: 320000002 cycles: 158726392 heartbeat IPC: 1.075 cumulative IPC: 1.124 (Simulation time: 03 hr 27 min 48 sec)
Heartbeat CPU 1 instructions: 420000003 cycles: 160671618 heartbeat IPC: 1.958 cumulative IPC: 1.952 (Simulation time: 03 hr 29 min 51 sec)
Heartbeat CPU 4 instructions: 320000000 cycles: 160748475 heartbeat IPC: 0.9542 cumulative IPC: 1.031 (Simulation time: 03 hr 29 min 56 sec)
Heartbeat CPU 3 instructions: 320000001 cycles: 160899858 heartbeat IPC: 0.947 cumulative IPC: 1.03 (Simulation time: 03 hr 30 min 06 sec)
Heartbeat CPU 7 instructions: 320000003 cycles: 160990371 heartbeat IPC: 0.9432 cumulative IPC: 1.029 (Simulation time: 03 hr 30 min 12 sec)
Heartbeat CPU 5 instructions: 430000001 cycles: 161611805 heartbeat IPC: 2.309 cumulative IPC: 2.026 (Simulation time: 03 hr 30 min 53 sec)
Heartbeat CPU 6 instructions: 510000003 cycles: 165142092 heartbeat IPC: 0.9482 cumulative IPC: 2.67 (Simulation time: 03 hr 34 min 41 sec)
Heartbeat CPU 1 instructions: 430000002 cycles: 165761515 heartbeat IPC: 1.965 cumulative IPC: 1.952 (Simulation time: 03 hr 35 min 21 sec)
Heartbeat CPU 5 instructions: 440000002 cycles: 165932230 heartbeat IPC: 2.315 cumulative IPC: 2.037 (Simulation time: 03 hr 35 min 32 sec)
Heartbeat CPU 0 instructions: 350000000 cycles: 166509488 heartbeat IPC: 1.257 cumulative IPC: 1.241 (Simulation time: 03 hr 36 min 09 sec)
Heartbeat CPU 2 instructions: 330000002 cycles: 168147808 heartbeat IPC: 1.061 cumulative IPC: 1.119 (Simulation time: 03 hr 37 min 52 sec)
Heartbeat CPU 5 instructions: 450000003 cycles: 170514287 heartbeat IPC: 2.182 cumulative IPC: 2.043 (Simulation time: 03 hr 40 min 20 sec)
Heartbeat CPU 1 instructions: 440000000 cycles: 170832700 heartbeat IPC: 1.972 cumulative IPC: 1.953 (Simulation time: 03 hr 40 min 40 sec)
Heartbeat CPU 3 instructions: 330000003 cycles: 171695216 heartbeat IPC: 0.9263 cumulative IPC: 1.02 (Simulation time: 03 hr 41 min 36 sec)
Heartbeat CPU 4 instructions: 330000001 cycles: 171761583 heartbeat IPC: 0.908 cumulative IPC: 1.02 (Simulation time: 03 hr 41 min 40 sec)
Heartbeat CPU 7 instructions: 330000001 cycles: 171777689 heartbeat IPC: 0.927 cumulative IPC: 1.02 (Simulation time: 03 hr 41 min 41 sec)
Heartbeat CPU 5 instructions: 460000001 cycles: 174766186 heartbeat IPC: 2.352 cumulative IPC: 2.054 (Simulation time: 03 hr 45 min 01 sec)
Heartbeat CPU 0 instructions: 360000002 cycles: 174849638 heartbeat IPC: 1.199 cumulative IPC: 1.238 (Simulation time: 03 hr 45 min 07 sec)
Heartbeat CPU 1 instructions: 450000003 cycles: 175911068 heartbeat IPC: 1.969 cumulative IPC: 1.954 (Simulation time: 03 hr 46 min 18 sec)
Heartbeat CPU 6 instructions: 520000003 cycles: 176261803 heartbeat IPC: 0.8993 cumulative IPC: 2.511 (Simulation time: 03 hr 46 min 42 sec)
Heartbeat CPU 2 instructions: 340000003 cycles: 177652874 heartbeat IPC: 1.052 cumulative IPC: 1.114 (Simulation time: 03 hr 48 min 16 sec)
Heartbeat CPU 5 instructions: 470000003 cycles: 178914834 heartbeat IPC: 2.41 cumulative IPC: 2.065 (Simulation time: 03 hr 49 min 42 sec)
Heartbeat CPU 1 instructions: 460000001 cycles: 181022758 heartbeat IPC: 1.956 cumulative IPC: 1.954 (Simulation time: 03 hr 52 min 04 sec)
Heartbeat CPU 4 instructions: 340000002 cycles: 181688232 heartbeat IPC: 1.007 cumulative IPC: 1.019 (Simulation time: 03 hr 52 min 50 sec)
Heartbeat CPU 6 instructions: 530000003 cycles: 181998524 heartbeat IPC: 1.743 cumulative IPC: 2.478 (Simulation time: 03 hr 53 min 10 sec)
Heartbeat CPU 3 instructions: 340000001 cycles: 182168551 heartbeat IPC: 0.9548 cumulative IPC: 1.015 (Simulation time: 03 hr 53 min 22 sec)
Heartbeat CPU 7 instructions: 340000003 cycles: 182230145 heartbeat IPC: 0.9567 cumulative IPC: 1.015 (Simulation time: 03 hr 53 min 26 sec)
Heartbeat CPU 0 instructions: 370000001 cycles: 183201177 heartbeat IPC: 1.197 cumulative IPC: 1.236 (Simulation time: 03 hr 54 min 32 sec)
Heartbeat CPU 5 instructions: 480000003 cycles: 183262510 heartbeat IPC: 2.3 cumulative IPC: 2.073 (Simulation time: 03 hr 54 min 36 sec)
Heartbeat CPU 1 instructions: 470000001 cycles: 186065530 heartbeat IPC: 1.983 cumulative IPC: 1.955 (Simulation time: 03 hr 57 min 33 sec)
Heartbeat CPU 2 instructions: 350000002 cycles: 187089354 heartbeat IPC: 1.06 cumulative IPC: 1.11 (Simulation time: 03 hr 58 min 34 sec)
Heartbeat CPU 5 instructions: 490000000 cycles: 189437604 heartbeat IPC: 1.619 cumulative IPC: 2.053 (Simulation time: 04 hr 01 min 02 sec)
Heartbeat CPU 1 instructions: 480000003 cycles: 191162637 heartbeat IPC: 1.962 cumulative IPC: 1.955 (Simulation time: 04 hr 02 min 48 sec)
Heartbeat CPU 0 instructions: 380000003 cycles: 191254415 heartbeat IPC: 1.242 cumulative IPC: 1.236 (Simulation time: 04 hr 02 min 54 sec)
Heartbeat CPU 4 instructions: 350000002 cycles: 192612568 heartbeat IPC: 0.9154 cumulative IPC: 1.011 (Simulation time: 04 hr 04 min 19 sec)
Heartbeat CPU 6 instructions: 540000000 cycles: 192672043 heartbeat IPC: 0.9369 cumulative IPC: 2.361 (Simulation time: 04 hr 04 min 23 sec)
Heartbeat CPU 3 instructions: 350000002 cycles: 193268986 heartbeat IPC: 0.9009 cumulative IPC: 1.006 (Simulation time: 04 hr 05 min 00 sec)
Heartbeat CPU 7 instructions: 350000002 cycles: 193329486 heartbeat IPC: 0.901 cumulative IPC: 1.006 (Simulation time: 04 hr 05 min 03 sec)
Heartbeat CPU 5 instructions: 500000001 cycles: 195755742 heartbeat IPC: 1.583 cumulative IPC: 2.032 (Simulation time: 04 hr 07 min 33 sec)
Heartbeat CPU 1 instructions: 490000003 cycles: 196224424 heartbeat IPC: 1.976 cumulative IPC: 1.956 (Simulation time: 04 hr 08 min 02 sec)
Heartbeat CPU 2 instructions: 360000000 cycles: 196612693 heartbeat IPC: 1.05 cumulative IPC: 1.106 (Simulation time: 04 hr 08 min 26 sec)
Heartbeat CPU 0 instructions: 390000000 cycles: 199456509 heartbeat IPC: 1.219 cumulative IPC: 1.235 (Simulation time: 04 hr 11 min 24 sec)
Heartbeat CPU 1 instructions: 500000000 cycles: 201310079 heartbeat IPC: 1.966 cumulative IPC: 1.956 (Simulation time: 04 hr 13 min 19 sec)
Heartbeat CPU 5 instructions: 510000003 cycles: 201959200 heartbeat IPC: 1.612 cumulative IPC: 2.015 (Simulation time: 04 hr 14 min 00 sec)
Heartbeat CPU 4 instructions: 360000002 cycles: 203728074 heartbeat IPC: 0.8996 cumulative IPC: 1.003 (Simulation time: 04 hr 15 min 51 sec)
Heartbeat CPU 3 instructions: 360000002 cycles: 204352879 heartbeat IPC: 0.9022 cumulative IPC: 0.9986 (Simulation time: 04 hr 16 min 29 sec)
Heartbeat CPU 7 instructions: 360000000 cycles: 204410355 heartbeat IPC: 0.9025 cumulative IPC: 0.9983 (Simulation time: 04 hr 16 min 33 sec)
Heartbeat CPU 6 instructions: 550000001 cycles: 205005817 heartbeat IPC: 0.8108 cumulative IPC: 2.236 (Simulation time: 04 hr 17 min 11 sec)
Heartbeat CPU 2 instructions: 370000000 cycles: 206202010 heartbeat IPC: 1.043 cumulative IPC: 1.102 (Simulation time: 04 hr 18 min 30 sec)
Heartbeat CPU 1 instructions: 510000001 cycles: 206410887 heartbeat IPC: 1.96 cumulative IPC: 1.956 (Simulation time: 04 hr 18 min 44 sec)
Heartbeat CPU 0 instructions: 400000003 cycles: 207747545 heartbeat IPC: 1.206 cumulative IPC: 1.234 (Simulation time: 04 hr 20 min 12 sec)
Heartbeat CPU 5 instructions: 520000000 cycles: 208056527 heartbeat IPC: 1.64 cumulative IPC: 2 (Simulation time: 04 hr 20 min 32 sec)
Heartbeat CPU 6 instructions: 560000003 cycles: 208993820 heartbeat IPC: 2.508 cumulative IPC: 2.243 (Simulation time: 04 hr 21 min 34 sec)
Heartbeat CPU 1 instructions: 520000001 cycles: 211555629 heartbeat IPC: 1.944 cumulative IPC: 1.956 (Simulation time: 04 hr 24 min 25 sec)
Heartbeat CPU 6 instructions: 570000003 cycles: 212782308 heartbeat IPC: 2.64 cumulative IPC: 2.252 (Simulation time: 04 hr 25 min 48 sec)
Heartbeat CPU 5 instructions: 530000001 cycles: 214008672 heartbeat IPC: 1.68 cumulative IPC: 1.988 (Simulation time: 04 hr 27 min 10 sec)
Heartbeat CPU 4 instructions: 370000000 cycles: 214083535 heartbeat IPC: 0.9657 cumulative IPC: 1.001 (Simulation time: 04 hr 27 min 15 sec)
Simulation finished CPU 0 instructions: 200000001 cycles: 162391133 cumulative IPC: 1.232 (Simulation time: 04 hr 27 min 32 sec)
Heartbeat CPU 3 instructions: 370000002 cycles: 215150810 heartbeat IPC: 0.9261 cumulative IPC: 0.9938 (Simulation time: 04 hr 28 min 26 sec)
Heartbeat CPU 7 instructions: 370000000 cycles: 215204337 heartbeat IPC: 0.9264 cumulative IPC: 0.9936 (Simulation time: 04 hr 28 min 30 sec)
Heartbeat CPU 2 instructions: 380000000 cycles: 215614206 heartbeat IPC: 1.062 cumulative IPC: 1.1 (Simulation time: 04 hr 28 min 57 sec)
Heartbeat CPU 0 instructions: 410000003 cycles: 216174466 heartbeat IPC: 1.187 cumulative IPC: 1.231 (Simulation time: 04 hr 29 min 35 sec)
Heartbeat CPU 1 instructions: 530000000 cycles: 216679671 heartbeat IPC: 1.952 cumulative IPC: 1.956 (Simulation time: 04 hr 30 min 08 sec)
Heartbeat CPU 6 instructions: 580000003 cycles: 216808835 heartbeat IPC: 2.484 cumulative IPC: 2.258 (Simulation time: 04 hr 30 min 17 sec)
Heartbeat CPU 5 instructions: 540000001 cycles: 219944416 heartbeat IPC: 1.685 cumulative IPC: 1.978 (Simulation time: 04 hr 33 min 45 sec)
Heartbeat CPU 6 instructions: 590000002 cycles: 220913153 heartbeat IPC: 2.436 cumulative IPC: 2.262 (Simulation time: 04 hr 34 min 50 sec)
Heartbeat CPU 1 instructions: 540000000 cycles: 221824811 heartbeat IPC: 1.944 cumulative IPC: 1.956 (Simulation time: 04 hr 35 min 51 sec)
Heartbeat CPU 0 instructions: 420000002 cycles: 224075787 heartbeat IPC: 1.266 cumulative IPC: 1.233 (Simulation time: 04 hr 38 min 13 sec)
Heartbeat CPU 4 instructions: 380000002 cycles: 224766387 heartbeat IPC: 0.9361 cumulative IPC: 0.9965 (Simulation time: 04 hr 38 min 56 sec)
Heartbeat CPU 2 instructions: 390000001 cycles: 225047831 heartbeat IPC: 1.06 cumulative IPC: 1.098 (Simulation time: 04 hr 39 min 13 sec)
Heartbeat CPU 3 instructions: 380000000 cycles: 225892850 heartbeat IPC: 0.9309 cumulative IPC: 0.9899 (Simulation time: 04 hr 40 min 06 sec)
Heartbeat CPU 5 instructions: 550000001 cycles: 225967013 heartbeat IPC: 1.66 cumulative IPC: 1.967 (Simulation time: 04 hr 40 min 11 sec)
Heartbeat CPU 7 instructions: 380000000 cycles: 225988998 heartbeat IPC: 0.9272 cumulative IPC: 0.9895 (Simulation time: 04 hr 40 min 12 sec)
Heartbeat CPU 1 instructions: 550000000 cycles: 226969237 heartbeat IPC: 1.944 cumulative IPC: 1.955 (Simulation time: 04 hr 41 min 14 sec)
Heartbeat CPU 6 instructions: 600000003 cycles: 231498063 heartbeat IPC: 0.9447 cumulative IPC: 2.184 (Simulation time: 04 hr 45 min 58 sec)
Heartbeat CPU 0 instructions: 430000003 cycles: 231629523 heartbeat IPC: 1.324 cumulative IPC: 1.237 (Simulation time: 04 hr 46 min 06 sec)
Heartbeat CPU 5 instructions: 560000002 cycles: 231892895 heartbeat IPC: 1.688 cumulative IPC: 1.957 (Simulation time: 04 hr 46 min 23 sec)
Heartbeat CPU 1 instructions: 560000002 cycles: 232123865 heartbeat IPC: 1.94 cumulative IPC: 1.955 (Simulation time: 04 hr 46 min 38 sec)
Heartbeat CPU 2 instructions: 400000003 cycles: 234546519 heartbeat IPC: 1.053 cumulative IPC: 1.095 (Simulation time: 04 hr 49 min 09 sec)
Simulation finished CPU 2 instructions: 200000003 cycles: 182592174 cumulative IPC: 1.095 (Simulation time: 04 hr 49 min 09 sec)
Heartbeat CPU 4 instructions: 390000000 cycles: 235414516 heartbeat IPC: 0.9391 cumulative IPC: 0.9932 (Simulation time: 04 hr 50 min 03 sec)
Heartbeat CPU 3 instructions: 390000000 cycles: 236450895 heartbeat IPC: 0.9471 cumulative IPC: 0.9875 (Simulation time: 04 hr 51 min 09 sec)
Heartbeat CPU 7 instructions: 390000002 cycles: 236557798 heartbeat IPC: 0.9462 cumulative IPC: 0.987 (Simulation time: 04 hr 51 min 16 sec)
Heartbeat CPU 1 instructions: 570000000 cycles: 237233602 heartbeat IPC: 1.957 cumulative IPC: 1.955 (Simulation time: 04 hr 51 min 58 sec)
Heartbeat CPU 5 instructions: 570000001 cycles: 237945747 heartbeat IPC: 1.652 cumulative IPC: 1.947 (Simulation time: 04 hr 52 min 43 sec)
Heartbeat CPU 0 instructions: 440000002 cycles: 239562467 heartbeat IPC: 1.261 cumulative IPC: 1.238 (Simulation time: 04 hr 54 min 22 sec)
Heartbeat CPU 1 instructions: 580000001 cycles: 242380192 heartbeat IPC: 1.943 cumulative IPC: 1.954 (Simulation time: 04 hr 57 min 14 sec)
Heartbeat CPU 5 instructions: 580000000 cycles: 243998489 heartbeat IPC: 1.652 cumulative IPC: 1.938 (Simulation time: 04 hr 58 min 54 sec)
Heartbeat CPU 2 instructions: 410000000 cycles: 244156940 heartbeat IPC: 1.041 cumulative IPC: 1.093 (Simulation time: 04 hr 59 min 04 sec)
Heartbeat CPU 6 instructions: 610000000 cycles: 245229740 heartbeat IPC: 0.7282 cumulative IPC: 2.081 (Simulation time: 05 hr 00 min 13 sec)
Heartbeat CPU 4 instructions: 400000000 cycles: 246130194 heartbeat IPC: 0.9332 cumulative IPC: 0.9899 (Simulation time: 05 hr 01 min 10 sec)
Heartbeat CPU 1 instructions: 590000002 cycles: 247489239 heartbeat IPC: 1.957 cumulative IPC: 1.955 (Simulation time: 05 hr 02 min 36 sec)
Heartbeat CPU 3 instructions: 400000000 cycles: 247646233 heartbeat IPC: 0.8932 cumulative IPC: 0.9821 (Simulation time: 05 hr 02 min 46 sec)
Heartbeat CPU 7 instructions: 400000000 cycles: 247754570 heartbeat IPC: 0.8931 cumulative IPC: 0.9816 (Simulation time: 05 hr 02 min 52 sec)
Heartbeat CPU 0 instructions: 450000003 cycles: 248114615 heartbeat IPC: 1.169 cumulative IPC: 1.235 (Simulation time: 05 hr 03 min 14 sec)
Heartbeat CPU 5 instructions: 590000000 cycles: 249925846 heartbeat IPC: 1.687 cumulative IPC: 1.931 (Simulation time: 05 hr 05 min 09 sec)
Heartbeat CPU 1 instructions: 600000001 cycles: 252621361 heartbeat IPC: 1.949 cumulative IPC: 1.954 (Simulation time: 05 hr 07 min 57 sec)
Heartbeat CPU 2 instructions: 420000002 cycles: 253697868 heartbeat IPC: 1.048 cumulative IPC: 1.09 (Simulation time: 05 hr 09 min 03 sec)
Simulation finished CPU 4 instructions: 200000002 cycles: 202557029 cumulative IPC: 0.9874 (Simulation time: 05 hr 09 min 55 sec)
Heartbeat CPU 5 instructions: 600000002 cycles: 255701987 heartbeat IPC: 1.731 cumulative IPC: 1.925 (Simulation time: 05 hr 11 min 09 sec)
Simulation finished CPU 3 instructions: 200000002 cycles: 204429248 cumulative IPC: 0.9783 (Simulation time: 05 hr 11 min 52 sec)
Simulation finished CPU 7 instructions: 200000000 cycles: 204494645 cumulative IPC: 0.978 (Simulation time: 05 hr 11 min 56 sec)
Simulation complete CPU 0 instructions: 251933005 cycles: 204494645 cumulative IPC: 1.232 (Simulation time: 05 hr 11 min 56 sec)
Simulation complete CPU 1 instructions: 399647914 cycles: 204494645 cumulative IPC: 1.954 (Simulation time: 05 hr 11 min 56 sec)
Simulation complete CPU 2 instructions: 222843437 cycles: 204494645 cumulative IPC: 1.09 (Simulation time: 05 hr 11 min 56 sec)
Simulation complete CPU 3 instructions: 200058558 cycles: 204494645 cumulative IPC: 0.9783 (Simulation time: 05 hr 11 min 56 sec)
Simulation complete CPU 4 instructions: 201634321 cycles: 204494645 cumulative IPC: 0.986 (Simulation time: 05 hr 11 min 56 sec)
Simulation complete CPU 5 instructions: 393462654 cycles: 204494645 cumulative IPC: 1.924 (Simulation time: 05 hr 11 min 56 sec)
Simulation complete CPU 6 instructions: 411294301 cycles: 204494645 cumulative IPC: 2.011 (Simulation time: 05 hr 11 min 56 sec)
Simulation complete CPU 7 instructions: 200000000 cycles: 204494645 cumulative IPC: 0.978 (Simulation time: 05 hr 11 min 56 sec)

ChampSim completed all CPUs

=== Simulation ===
CPU 0 runs /public/champsim/dp3_traces/631.deepsjeng_s-928B.champsimtrace.xzCPU 1 runs /public/champsim/dp3_traces/644.nab_s-5853B.champsimtrace.xzCPU 2 runs /public/champsim/dp3_traces/607.cactuBSSN_s-2421B.champsimtrace.xzCPU 3 runs /public/champsim/dp3_traces/649.fotonik3d_s-1176B.champsimtrace.xzCPU 4 runs /public/champsim/dp3_traces/602.gcc_s-734B.champsimtrace.xzCPU 5 runs /public/champsim/dp3_traces/621.wrf_s-575B.champsimtrace.xzCPU 6 runs /public/champsim/dp3_traces/600.perlbench_s-210B.champsimtrace.xzCPU 7 runs /public/champsim/dp3_traces/649.fotonik3d_s-1176B.champsimtrace.xz
Total Simulation Statistics (not including warmup)

CPU 0 cumulative IPC: 1.232 instructions: 251933005 cycles: 204494645
CPU 0 Branch Prediction Accuracy: 95.68% MPKI: 6.392 Average ROB Occupancy at Mispredict: 71.83
Branch type MPKI
BRANCH_DIRECT_JUMP: 0.0177
BRANCH_INDIRECT: 0.00895
BRANCH_CONDITIONAL: 5.83
BRANCH_DIRECT_CALL: 0.0209
BRANCH_INDIRECT_CALL: 0
BRANCH_RETURN: 0.517


CPU 1 cumulative IPC: 1.954 instructions: 399647914 cycles: 204494645
CPU 1 Branch Prediction Accuracy: 88.56% MPKI: 11.07 Average ROB Occupancy at Mispredict: 67.7
Branch type MPKI
BRANCH_DIRECT_JUMP: 0.000133
BRANCH_INDIRECT: 0
BRANCH_CONDITIONAL: 5.54
BRANCH_DIRECT_CALL: 2.5e-06
BRANCH_INDIRECT_CALL: 0
BRANCH_RETURN: 5.53


CPU 2 cumulative IPC: 1.09 instructions: 222843437 cycles: 204494645
CPU 2 Branch Prediction Accuracy: 99.85% MPKI: 0.001795 Average ROB Occupancy at Mispredict: 368.5
Branch type MPKI
BRANCH_DIRECT_JUMP: 0
BRANCH_INDIRECT: 0
BRANCH_CONDITIONAL: 0.00179
BRANCH_DIRECT_CALL: 0
BRANCH_INDIRECT_CALL: 0
BRANCH_RETURN: 0


CPU 3 cumulative IPC: 0.9783 instructions: 200058558 cycles: 204494645
CPU 3 Branch Prediction Accuracy: 99.2% MPKI: 0.1602 Average ROB Occupancy at Mispredict: 57.92
Branch type MPKI
BRANCH_DIRECT_JUMP: 0.000445
BRANCH_INDIRECT: 0
BRANCH_CONDITIONAL: 0.12
BRANCH_DIRECT_CALL: 8e-05
BRANCH_INDIRECT_CALL: 0
BRANCH_RETURN: 0.0401


CPU 4 cumulative IPC: 0.986 instructions: 201634321 cycles: 204494645
CPU 4 Branch Prediction Accuracy: 99.86% MPKI: 0.3249 Average ROB Occupancy at Mispredict: 136.4
Branch type MPKI
BRANCH_DIRECT_JUMP: 0.102
BRANCH_INDIRECT: 0
BRANCH_CONDITIONAL: 0.147
BRANCH_DIRECT_CALL: 0.0766
BRANCH_INDIRECT_CALL: 4.96e-06
BRANCH_RETURN: 0


CPU 5 cumulative IPC: 1.924 instructions: 393462654 cycles: 204494645
CPU 5 Branch Prediction Accuracy: 97.24% MPKI: 3.881 Average ROB Occupancy at Mispredict: 103.8
Branch type MPKI
BRANCH_DIRECT_JUMP: 0.000544
BRANCH_INDIRECT: 1.52e-05
BRANCH_CONDITIONAL: 3.48
BRANCH_DIRECT_CALL: 0.00298
BRANCH_INDIRECT_CALL: 0
BRANCH_RETURN: 0.394


CPU 6 cumulative IPC: 2.011 instructions: 411294301 cycles: 204494645
CPU 6 Branch Prediction Accuracy: 98.51% MPKI: 2.303 Average ROB Occupancy at Mispredict: 98.1
Branch type MPKI
BRANCH_DIRECT_JUMP: 0.0576
BRANCH_INDIRECT: 0.365
BRANCH_CONDITIONAL: 1.63
BRANCH_DIRECT_CALL: 0.0163
BRANCH_INDIRECT_CALL: 0.21
BRANCH_RETURN: 0.0202


CPU 7 cumulative IPC: 0.978 instructions: 200000000 cycles: 204494645
CPU 7 Branch Prediction Accuracy: 99.2% MPKI: 0.1602 Average ROB Occupancy at Mispredict: 57.72
Branch type MPKI
BRANCH_DIRECT_JUMP: 0.000445
BRANCH_INDIRECT: 0
BRANCH_CONDITIONAL: 0.12
BRANCH_DIRECT_CALL: 8e-05
BRANCH_INDIRECT_CALL: 0
BRANCH_RETURN: 0.0401

cpu0 INVINCIBLE ACTIVATED: 12655 FREED: 9853
LLC LOAD         IN CARTEL ACCESSES:         32 BLOCKED ACCESSES:        104
LLC RFO          IN CARTEL ACCESSES:          3 BLOCKED ACCESSES:          3
LLC PREFETCH     IN CARTEL ACCESSES:          3 BLOCKED ACCESSES:          1
LLC WRITE        IN CARTEL ACCESSES:        245 BLOCKED ACCESSES:         69
LLC TRANSLATION  IN CARTEL ACCESSES:         28 BLOCKED ACCESSES:         75
LLC TOTAL       IN CARTEL ACCESS:        311 IN CARTEL HIT:         46 IN CARTEL MISS:        265
LLC LOAD         IN CARTEL ACCESS:         32 IN CARTEL HIT:          3 IN CARTEL MISS:         29
LLC RFO          IN CARTEL ACCESS:          3 IN CARTEL HIT:          2 IN CARTEL MISS:          1
LLC PREFETCH     IN CARTEL ACCESS:          3 IN CARTEL HIT:          0 IN CARTEL MISS:          3
LLC WRITE        IN CARTEL ACCESS:        245 IN CARTEL HIT:         41 IN CARTEL MISS:        204
LLC TRANSLATION  IN CARTEL ACCESS:         28 IN CARTEL HIT:          0 IN CARTEL MISS:         28
LLC TOTAL        ACCESS:     188660 HIT:       2855 MISS:     185805
LLC LOAD         ACCESS:      71998 HIT:        328 MISS:      71670
LLC RFO          ACCESS:       2538 HIT:        554 MISS:       1984
LLC PREFETCH     ACCESS:       1898 HIT:         80 MISS:       1818
LLC WRITE        ACCESS:      51342 HIT:       1886 MISS:      49456
LLC TRANSLATION  ACCESS:      60884 HIT:          7 MISS:      60877
LLC PREFETCH REQUESTED:          0 ISSUED:          0 USEFUL:          0 USELESS:          0
LLC AVERAGE MISS LATENCY: 628.6 cycles
cpu1 INVINCIBLE ACTIVATED: 6307 FREED: 5743
LLC LOAD         IN CARTEL ACCESSES:          2 BLOCKED ACCESSES:         21
LLC RFO          IN CARTEL ACCESSES:          0 BLOCKED ACCESSES:          0
LLC PREFETCH     IN CARTEL ACCESSES:         19 BLOCKED ACCESSES:         80
LLC WRITE        IN CARTEL ACCESSES:         10 BLOCKED ACCESSES:          6
LLC TRANSLATION  IN CARTEL ACCESSES:          1 BLOCKED ACCESSES:          3
LLC TOTAL       IN CARTEL ACCESS:         32 IN CARTEL HIT:          2 IN CARTEL MISS:         30
LLC LOAD         IN CARTEL ACCESS:          2 IN CARTEL HIT:          0 IN CARTEL MISS:          2
LLC RFO          IN CARTEL ACCESS:          0 IN CARTEL HIT:          0 IN CARTEL MISS:          0
LLC PREFETCH     IN CARTEL ACCESS:         19 IN CARTEL HIT:          2 IN CARTEL MISS:         17
LLC WRITE        IN CARTEL ACCESS:         10 IN CARTEL HIT:          0 IN CARTEL MISS:         10
LLC TRANSLATION  IN CARTEL ACCESS:          1 IN CARTEL HIT:          0 IN CARTEL MISS:          1
LLC TOTAL        ACCESS:      90184 HIT:        298 MISS:      89886
LLC LOAD         ACCESS:      12228 HIT:        142 MISS:      12086
LLC RFO          ACCESS:        245 HIT:         18 MISS:        227
LLC PREFETCH     ACCESS:      73416 HIT:        130 MISS:      73286
LLC WRITE        ACCESS:       3127 HIT:          8 MISS:       3119
LLC TRANSLATION  ACCESS:       1168 HIT:          0 MISS:       1168
LLC PREFETCH REQUESTED:          0 ISSUED:          0 USEFUL:          0 USELESS:          0
LLC AVERAGE MISS LATENCY: 628.6 cycles
cpu2 INVINCIBLE ACTIVATED: 121046 FREED: 137310
LLC LOAD         IN CARTEL ACCESSES:       7587 BLOCKED ACCESSES:         92
LLC RFO          IN CARTEL ACCESSES:         21 BLOCKED ACCESSES:          0
LLC PREFETCH     IN CARTEL ACCESSES:          6 BLOCKED ACCESSES:          0
LLC WRITE        IN CARTEL ACCESSES:       1409 BLOCKED ACCESSES:          0
LLC TRANSLATION  IN CARTEL ACCESSES:         78 BLOCKED ACCESSES:          0
LLC TOTAL       IN CARTEL ACCESS:       9101 IN CARTEL HIT:       4617 IN CARTEL MISS:       4484
LLC LOAD         IN CARTEL ACCESS:       7587 IN CARTEL HIT:       3148 IN CARTEL MISS:       4439
LLC RFO          IN CARTEL ACCESS:         21 IN CARTEL HIT:         21 IN CARTEL MISS:          0
LLC PREFETCH     IN CARTEL ACCESS:          6 IN CARTEL HIT:          5 IN CARTEL MISS:          1
LLC WRITE        IN CARTEL ACCESS:       1409 IN CARTEL HIT:       1409 IN CARTEL MISS:          0
LLC TRANSLATION  IN CARTEL ACCESS:         78 IN CARTEL HIT:         34 IN CARTEL MISS:         44
LLC TOTAL        ACCESS:    2546622 HIT:     675749 MISS:    1870873
LLC LOAD         ACCESS:    2291479 HIT:     479242 MISS:    1812237
LLC RFO          ACCESS:        858 HIT:        857 MISS:          1
LLC PREFETCH     ACCESS:       2627 HIT:       1689 MISS:        938
LLC WRITE        ACCESS:     217760 HIT:     184505 MISS:      33255
LLC TRANSLATION  ACCESS:      33898 HIT:       9456 MISS:      24442
LLC PREFETCH REQUESTED:          0 ISSUED:          0 USEFUL:          0 USELESS:          0
LLC AVERAGE MISS LATENCY: 628.6 cycles
cpu3 INVINCIBLE ACTIVATED: 121704 FREED: 130442
LLC LOAD         IN CARTEL ACCESSES:        335 BLOCKED ACCESSES:          6
LLC RFO          IN CARTEL ACCESSES:          2 BLOCKED ACCESSES:          0
LLC PREFETCH     IN CARTEL ACCESSES:       2330 BLOCKED ACCESSES:         36
LLC WRITE        IN CARTEL ACCESSES:      10923 BLOCKED ACCESSES:          0
LLC TRANSLATION  IN CARTEL ACCESSES:          0 BLOCKED ACCESSES:          0
LLC TOTAL       IN CARTEL ACCESS:      13590 IN CARTEL HIT:      11350 IN CARTEL MISS:       2240
LLC LOAD         IN CARTEL ACCESS:        335 IN CARTEL HIT:         59 IN CARTEL MISS:        276
LLC RFO          IN CARTEL ACCESS:          2 IN CARTEL HIT:          2 IN CARTEL MISS:          0
LLC PREFETCH     IN CARTEL ACCESS:       2330 IN CARTEL HIT:        369 IN CARTEL MISS:       1961
LLC WRITE        IN CARTEL ACCESS:      10923 IN CARTEL HIT:      10920 IN CARTEL MISS:          3
LLC TRANSLATION  IN CARTEL ACCESS:          0 IN CARTEL HIT:          0 IN CARTEL MISS:          0
LLC TOTAL        ACCESS:    3599670 HIT:    1522662 MISS:    2077008
LLC LOAD         ACCESS:     254818 HIT:      11374 MISS:     243444
LLC RFO          ACCESS:        901 HIT:        695 MISS:        206
LLC PREFETCH     ACCESS:    1617561 HIT:      81047 MISS:    1536514
LLC WRITE        ACCESS:    1725971 HIT:    1429398 MISS:     296573
LLC TRANSLATION  ACCESS:        419 HIT:        148 MISS:        271
LLC PREFETCH REQUESTED:          0 ISSUED:          0 USEFUL:          0 USELESS:          0
LLC AVERAGE MISS LATENCY: 628.6 cycles
cpu4 INVINCIBLE ACTIVATED: 117739 FREED: 79319
LLC LOAD         IN CARTEL ACCESSES:        404 BLOCKED ACCESSES:         18
LLC RFO          IN CARTEL ACCESSES:          4 BLOCKED ACCESSES:          0
LLC PREFETCH     IN CARTEL ACCESSES:       2760 BLOCKED ACCESSES:         88
LLC WRITE        IN CARTEL ACCESSES:        147 BLOCKED ACCESSES:          1
LLC TRANSLATION  IN CARTEL ACCESSES:         49 BLOCKED ACCESSES:          0
LLC TOTAL       IN CARTEL ACCESS:       3364 IN CARTEL HIT:        179 IN CARTEL MISS:       3185
LLC LOAD         IN CARTEL ACCESS:        404 IN CARTEL HIT:         14 IN CARTEL MISS:        390
LLC RFO          IN CARTEL ACCESS:          4 IN CARTEL HIT:          0 IN CARTEL MISS:          4
LLC PREFETCH     IN CARTEL ACCESS:       2760 IN CARTEL HIT:         35 IN CARTEL MISS:       2725
LLC WRITE        IN CARTEL ACCESS:        147 IN CARTEL HIT:        122 IN CARTEL MISS:         25
LLC TRANSLATION  IN CARTEL ACCESS:         49 IN CARTEL HIT:          8 IN CARTEL MISS:         41
LLC TOTAL        ACCESS:    1717530 HIT:      19451 MISS:    1698079
LLC LOAD         ACCESS:     194883 HIT:       2021 MISS:     192862
LLC RFO          ACCESS:       1967 HIT:         14 MISS:       1953
LLC PREFETCH     ACCESS:    1479190 HIT:       2449 MISS:    1476741
LLC WRITE        ACCESS:      21253 HIT:      13896 MISS:       7357
LLC TRANSLATION  ACCESS:      20237 HIT:       1071 MISS:      19166
LLC PREFETCH REQUESTED:          0 ISSUED:          0 USEFUL:          0 USELESS:          0
LLC AVERAGE MISS LATENCY: 628.6 cycles
cpu5 INVINCIBLE ACTIVATED: 32942 FREED: 38928
LLC LOAD         IN CARTEL ACCESSES:        338 BLOCKED ACCESSES:         71
LLC RFO          IN CARTEL ACCESSES:        684 BLOCKED ACCESSES:        109
LLC PREFETCH     IN CARTEL ACCESSES:        494 BLOCKED ACCESSES:         62
LLC WRITE        IN CARTEL ACCESSES:       1930 BLOCKED ACCESSES:         31
LLC TRANSLATION  IN CARTEL ACCESSES:          4 BLOCKED ACCESSES:          1
LLC TOTAL       IN CARTEL ACCESS:       3450 IN CARTEL HIT:       2627 IN CARTEL MISS:        823
LLC LOAD         IN CARTEL ACCESS:        338 IN CARTEL HIT:        167 IN CARTEL MISS:        171
LLC RFO          IN CARTEL ACCESS:        684 IN CARTEL HIT:        350 IN CARTEL MISS:        334
LLC PREFETCH     IN CARTEL ACCESS:        494 IN CARTEL HIT:        326 IN CARTEL MISS:        168
LLC WRITE        IN CARTEL ACCESS:       1930 IN CARTEL HIT:       1783 IN CARTEL MISS:        147
LLC TRANSLATION  IN CARTEL ACCESS:          4 IN CARTEL HIT:          1 IN CARTEL MISS:          3
LLC TOTAL        ACCESS:     964534 HIT:     386371 MISS:     578163
LLC LOAD         ACCESS:     143763 HIT:      34626 MISS:     109137
LLC RFO          ACCESS:     319168 HIT:      88205 MISS:     230963
LLC PREFETCH     ACCESS:     150690 HIT:      24068 MISS:     126622
LLC WRITE        ACCESS:     348729 HIT:     238889 MISS:     109840
LLC TRANSLATION  ACCESS:       2184 HIT:        583 MISS:       1601
LLC PREFETCH REQUESTED:          0 ISSUED:          0 USEFUL:          0 USELESS:          0
LLC AVERAGE MISS LATENCY: 628.6 cycles
cpu6 INVINCIBLE ACTIVATED: 15831 FREED: 13921
LLC LOAD         IN CARTEL ACCESSES:        300 BLOCKED ACCESSES:        165
LLC RFO          IN CARTEL ACCESSES:         21 BLOCKED ACCESSES:         11
LLC PREFETCH     IN CARTEL ACCESSES:         53 BLOCKED ACCESSES:         43
LLC WRITE        IN CARTEL ACCESSES:        301 BLOCKED ACCESSES:         27
LLC TRANSLATION  IN CARTEL ACCESSES:         12 BLOCKED ACCESSES:          7
LLC TOTAL       IN CARTEL ACCESS:        687 IN CARTEL HIT:        356 IN CARTEL MISS:        331
LLC LOAD         IN CARTEL ACCESS:        300 IN CARTEL HIT:        113 IN CARTEL MISS:        187
LLC RFO          IN CARTEL ACCESS:         21 IN CARTEL HIT:          6 IN CARTEL MISS:         15
LLC PREFETCH     IN CARTEL ACCESS:         53 IN CARTEL HIT:         19 IN CARTEL MISS:         34
LLC WRITE        IN CARTEL ACCESS:        301 IN CARTEL HIT:        217 IN CARTEL MISS:         84
LLC TRANSLATION  IN CARTEL ACCESS:         12 IN CARTEL HIT:          1 IN CARTEL MISS:         11
LLC TOTAL        ACCESS:     301483 HIT:      46047 MISS:     255436
LLC LOAD         ACCESS:     189466 HIT:      21003 MISS:     168463
LLC RFO          ACCESS:      16784 HIT:       2682 MISS:      14102
LLC PREFETCH     ACCESS:      33273 HIT:       2439 MISS:      30834
LLC WRITE        ACCESS:      52191 HIT:      19606 MISS:      32585
LLC TRANSLATION  ACCESS:       9769 HIT:        317 MISS:       9452
LLC PREFETCH REQUESTED:          0 ISSUED:          0 USEFUL:          0 USELESS:          0
LLC AVERAGE MISS LATENCY: 628.6 cycles
cpu7 INVINCIBLE ACTIVATED: 122043 FREED: 134840
LLC LOAD         IN CARTEL ACCESSES:        412 BLOCKED ACCESSES:          3
LLC RFO          IN CARTEL ACCESSES:          1 BLOCKED ACCESSES:          0
LLC PREFETCH     IN CARTEL ACCESSES:       2616 BLOCKED ACCESSES:         28
LLC WRITE        IN CARTEL ACCESSES:      10641 BLOCKED ACCESSES:          0
LLC TRANSLATION  IN CARTEL ACCESSES:          2 BLOCKED ACCESSES:          0
LLC TOTAL       IN CARTEL ACCESS:      13672 IN CARTEL HIT:      11279 IN CARTEL MISS:       2393
LLC LOAD         IN CARTEL ACCESS:        412 IN CARTEL HIT:         75 IN CARTEL MISS:        337
LLC RFO          IN CARTEL ACCESS:          1 IN CARTEL HIT:          1 IN CARTEL MISS:          0
LLC PREFETCH     IN CARTEL ACCESS:       2616 IN CARTEL HIT:        567 IN CARTEL MISS:       2049
LLC WRITE        IN CARTEL ACCESS:      10641 IN CARTEL HIT:      10635 IN CARTEL MISS:          6
LLC TRANSLATION  IN CARTEL ACCESS:          2 IN CARTEL HIT:          1 IN CARTEL MISS:          1
LLC TOTAL        ACCESS:    3659344 HIT:    1581657 MISS:    2077687
LLC LOAD         ACCESS:     252144 HIT:      15489 MISS:     236655
LLC RFO          ACCESS:        705 HIT:        453 MISS:        252
LLC PREFETCH     ACCESS:    1681105 HIT:     137877 MISS:    1543228
LLC WRITE        ACCESS:    1724983 HIT:    1427695 MISS:     297288
LLC TRANSLATION  ACCESS:        407 HIT:        143 MISS:        264
LLC PREFETCH REQUESTED:          0 ISSUED:          0 USEFUL:          0 USELESS:          0
LLC AVERAGE MISS LATENCY: 628.6 cycles
cpu0_DTLB TOTAL        ACCESS:   49155420 HIT:   48890056 MISS:     265364
cpu0_DTLB LOAD         ACCESS:   49155420 HIT:   48890056 MISS:     265364
cpu0_DTLB RFO          ACCESS:          0 HIT:          0 MISS:          0
cpu0_DTLB PREFETCH     ACCESS:          0 HIT:          0 MISS:          0
cpu0_DTLB WRITE        ACCESS:          0 HIT:          0 MISS:          0
cpu0_DTLB TRANSLATION  ACCESS:          0 HIT:          0 MISS:          0
cpu0_DTLB PREFETCH REQUESTED:          0 ISSUED:          0 USEFUL:          0 USELESS:          0
cpu0_DTLB AVERAGE MISS LATENCY: 202.7 cycles
cpu0_DTLB TOTAL        ACCESS:          0 HIT:          0 MISS:          0
cpu0_DTLB LOAD         ACCESS:          0 HIT:          0 MISS:          0
cpu0_DTLB RFO          ACCESS:          0 HIT:          0 MISS:          0
cpu0_DTLB PREFETCH     ACCESS:          0 HIT:          0 MISS:          0
cpu0_DTLB WRITE        ACCESS:          0 HIT:          0 MISS:          0
cpu0_DTLB TRANSLATION  ACCESS:          0 HIT:          0 MISS:          0
cpu0_DTLB PREFETCH REQUESTED:          0 ISSUED:          0 USEFUL:          0 USELESS:          0
cpu0_DTLB AVERAGE MISS LATENCY: 202.7 cycles
cpu0_DTLB TOTAL        ACCESS:          0 HIT:          0 MISS:          0
cpu0_DTLB LOAD         ACCESS:          0 HIT:          0 MISS:          0
cpu0_DTLB RFO          ACCESS:          0 HIT:          0 MISS:          0
cpu0_DTLB PREFETCH     ACCESS:          0 HIT:          0 MISS:          0
cpu0_DTLB WRITE        ACCESS:          0 HIT:          0 MISS:          0
cpu0_DTLB TRANSLATION  ACCESS:          0 HIT:          0 MISS:          0
cpu0_DTLB PREFETCH REQUESTED:          0 ISSUED:          0 USEFUL:          0 USELESS:          0
cpu0_DTLB AVERAGE MISS LATENCY: 202.7 cycles
cpu0_DTLB TOTAL        ACCESS:          0 HIT:          0 MISS:          0
cpu0_DTLB LOAD         ACCESS:          0 HIT:          0 MISS:          0
cpu0_DTLB RFO          ACCESS:          0 HIT:          0 MISS:          0
cpu0_DTLB PREFETCH     ACCESS:          0 HIT:          0 MISS:          0
cpu0_DTLB WRITE        ACCESS:          0 HIT:          0 MISS:          0
cpu0_DTLB TRANSLATION  ACCESS:          0 HIT:          0 MISS:          0
cpu0_DTLB PREFETCH REQUESTED:          0 ISSUED:          0 USEFUL:          0 USELESS:          0
cpu0_DTLB AVERAGE MISS LATENCY: 202.7 cycles
cpu0_DTLB TOTAL        ACCESS:          0 HIT:          0 MISS:          0
cpu0_DTLB LOAD         ACCESS:          0 HIT:          0 MISS:          0
cpu0_DTLB RFO          ACCESS:          0 HIT:          0 MISS:          0
cpu0_DTLB PREFETCH     ACCESS:          0 HIT:          0 MISS:          0
cpu0_DTLB WRITE        ACCESS:          0 HIT:          0 MISS:          0
cpu0_DTLB TRANSLATION  ACCESS:          0 HIT:          0 MISS:          0
cpu0_DTLB PREFETCH REQUESTED:          0 ISSUED:          0 USEFUL:          0 USELESS:          0
cpu0_DTLB AVERAGE MISS LATENCY: 202.7 cycles
cpu0_DTLB TOTAL        ACCESS:          0 HIT:          0 MISS:          0
cpu0_DTLB LOAD         ACCESS:          0 HIT:          0 MISS:          0
cpu0_DTLB RFO          ACCESS:          0 HIT:          0 MISS:          0
cpu0_DTLB PREFETCH     ACCESS:          0 HIT:          0 MISS:          0
cpu0_DTLB WRITE        ACCESS:          0 HIT:          0 MISS:          0
cpu0_DTLB TRANSLATION  ACCESS:          0 HIT:          0 MISS:          0
cpu0_DTLB PREFETCH REQUESTED:          0 ISSUED:          0 USEFUL:          0 USELESS:          0
cpu0_DTLB AVERAGE MISS LATENCY: 202.7 cycles
cpu0_DTLB TOTAL        ACCESS:          0 HIT:          0 MISS:          0
cpu0_DTLB LOAD         ACCESS:          0 HIT:          0 MISS:          0
cpu0_DTLB RFO          ACCESS:          0 HIT:          0 MISS:          0
cpu0_DTLB PREFETCH     ACCESS:          0 HIT:          0 MISS:          0
cpu0_DTLB WRITE        ACCESS:          0 HIT:          0 MISS:          0
cpu0_DTLB TRANSLATION  ACCESS:          0 HIT:          0 MISS:          0
cpu0_DTLB PREFETCH REQUESTED:          0 ISSUED:          0 USEFUL:          0 USELESS:          0
cpu0_DTLB AVERAGE MISS LATENCY: 202.7 cycles
cpu0_DTLB TOTAL        ACCESS:          0 HIT:          0 MISS:          0
cpu0_DTLB LOAD         ACCESS:          0 HIT:          0 MISS:          0
cpu0_DTLB RFO          ACCESS:          0 HIT:          0 MISS:          0
cpu0_DTLB PREFETCH     ACCESS:          0 HIT:          0 MISS:          0
cpu0_DTLB WRITE        ACCESS:          0 HIT:          0 MISS:          0
cpu0_DTLB TRANSLATION  ACCESS:          0 HIT:          0 MISS:          0
cpu0_DTLB PREFETCH REQUESTED:          0 ISSUED:          0 USEFUL:          0 USELESS:          0
cpu0_DTLB AVERAGE MISS LATENCY: 202.7 cycles
cpu0_ITLB TOTAL        ACCESS:   16823043 HIT:   16823043 MISS:          0
cpu0_ITLB LOAD         ACCESS:   16823043 HIT:   16823043 MISS:          0
cpu0_ITLB RFO          ACCESS:          0 HIT:          0 MISS:          0
cpu0_ITLB PREFETCH     ACCESS:          0 HIT:          0 MISS:          0
cpu0_ITLB WRITE        ACCESS:          0 HIT:          0 MISS:          0
cpu0_ITLB TRANSLATION  ACCESS:          0 HIT:          0 MISS:          0
cpu0_ITLB PREFETCH REQUESTED:          0 ISSUED:          0 USEFUL:          0 USELESS:          0
cpu0_ITLB AVERAGE MISS LATENCY: -nan cycles
cpu0_ITLB TOTAL        ACCESS:          0 HIT:          0 MISS:          0
cpu0_ITLB LOAD         ACCESS:          0 HIT:          0 MISS:          0
cpu0_ITLB RFO          ACCESS:          0 HIT:          0 MISS:          0
cpu0_ITLB PREFETCH     ACCESS:          0 HIT:          0 MISS:          0
cpu0_ITLB WRITE        ACCESS:          0 HIT:          0 MISS:          0
cpu0_ITLB TRANSLATION  ACCESS:          0 HIT:          0 MISS:          0
cpu0_ITLB PREFETCH REQUESTED:          0 ISSUED:          0 USEFUL:          0 USELESS:          0
cpu0_ITLB AVERAGE MISS LATENCY: -nan cycles
cpu0_ITLB TOTAL        ACCESS:          0 HIT:          0 MISS:          0
cpu0_ITLB LOAD         ACCESS:          0 HIT:          0 MISS:          0
cpu0_ITLB RFO          ACCESS:          0 HIT:          0 MISS:          0
cpu0_ITLB PREFETCH     ACCESS:          0 HIT:          0 MISS:          0
cpu0_ITLB WRITE        ACCESS:          0 HIT:          0 MISS:          0
cpu0_ITLB TRANSLATION  ACCESS:          0 HIT:          0 MISS:          0
cpu0_ITLB PREFETCH REQUESTED:          0 ISSUED:          0 USEFUL:          0 USELESS:          0
cpu0_ITLB AVERAGE MISS LATENCY: -nan cycles
[...]
cpu7_ITLB PREFETCH REQUESTED:          0 ISSUED:          0 USEFUL:          0 USELESS:          0
cpu7_ITLB AVERAGE MISS LATENCY: 322.8 cycles
cpu7_ITLB TOTAL        ACCESS:       2731 HIT:       2707 MISS:         24
cpu7_ITLB LOAD         ACCESS:       2731 HIT:       2707 MISS:         24
cpu7_ITLB RFO          ACCESS:          0 HIT:          0 MISS:          0
cpu7_ITLB PREFETCH     ACCESS:          0 HIT:          0 MISS:          0
cpu7_ITLB WRITE        ACCESS:          0 HIT:          0 MISS:          0
cpu7_ITLB TRANSLATION  ACCESS:          0 HIT:          0 MISS:          0
cpu7_ITLB PREFETCH REQUESTED:          0 ISSUED:          0 USEFUL:          0 USELESS:          0
cpu7_ITLB AVERAGE MISS LATENCY: 322.8 cycles
cpu7_L1D TOTAL        ACCESS:          0 HIT:          0 MISS:          0
cpu7_L1D LOAD         ACCESS:          0 HIT:          0 MISS:          0
cpu7_L1D RFO          ACCESS:          0 HIT:          0 MISS:          0
cpu7_L1D PREFETCH     ACCESS:          0 HIT:          0 MISS:          0
cpu7_L1D WRITE        ACCESS:          0 HIT:          0 MISS:          0
cpu7_L1D TRANSLATION  ACCESS:          0 HIT:          0 MISS:          0
cpu7_L1D PREFETCH REQUESTED:    1231299 ISSUED:    1231232 USEFUL:     822442 USELESS:       1982
cpu7_L1D AVERAGE MISS LATENCY: 60.05 cycles
cpu7_L1D TOTAL        ACCESS:          0 HIT:          0 MISS:          0
cpu7_L1D LOAD         ACCESS:          0 HIT:          0 MISS:          0
cpu7_L1D RFO          ACCESS:          0 HIT:          0 MISS:          0
cpu7_L1D PREFETCH     ACCESS:          0 HIT:          0 MISS:          0
cpu7_L1D WRITE        ACCESS:          0 HIT:          0 MISS:          0
cpu7_L1D TRANSLATION  ACCESS:          0 HIT:          0 MISS:          0
cpu7_L1D PREFETCH REQUESTED:    1231299 ISSUED:    1231232 USEFUL:     822442 USELESS:       1982
cpu7_L1D AVERAGE MISS LATENCY: 60.05 cycles
cpu7_L1D TOTAL        ACCESS:          0 HIT:          0 MISS:          0
cpu7_L1D LOAD         ACCESS:          0 HIT:          0 MISS:          0
cpu7_L1D RFO          ACCESS:          0 HIT:          0 MISS:          0
cpu7_L1D PREFETCH     ACCESS:          0 HIT:          0 MISS:          0
cpu7_L1D WRITE        ACCESS:          0 HIT:          0 MISS:          0
cpu7_L1D TRANSLATION  ACCESS:          0 HIT:          0 MISS:          0
cpu7_L1D PREFETCH REQUESTED:    1231299 ISSUED:    1231232 USEFUL:     822442 USELESS:       1982
cpu7_L1D AVERAGE MISS LATENCY: 60.05 cycles
cpu7_L1D TOTAL        ACCESS:          0 HIT:          0 MISS:          0
cpu7_L1D LOAD         ACCESS:          0 HIT:          0 MISS:          0
cpu7_L1D RFO          ACCESS:          0 HIT:          0 MISS:          0
cpu7_L1D PREFETCH     ACCESS:          0 HIT:          0 MISS:          0
cpu7_L1D WRITE        ACCESS:          0 HIT:          0 MISS:          0
cpu7_L1D TRANSLATION  ACCESS:          0 HIT:          0 MISS:          0
cpu7_L1D PREFETCH REQUESTED:    1231299 ISSUED:    1231232 USEFUL:     822442 USELESS:       1982
cpu7_L1D AVERAGE MISS LATENCY: 60.05 cycles
cpu7_L1D TOTAL        ACCESS:          0 HIT:          0 MISS:          0
cpu7_L1D LOAD         ACCESS:          0 HIT:          0 MISS:          0
cpu7_L1D RFO          ACCESS:          0 HIT:          0 MISS:          0
cpu7_L1D PREFETCH     ACCESS:          0 HIT:          0 MISS:          0
cpu7_L1D WRITE        ACCESS:          0 HIT:          0 MISS:          0
cpu7_L1D TRANSLATION  ACCESS:          0 HIT:          0 MISS:          0
cpu7_L1D PREFETCH REQUESTED:    1231299 ISSUED:    1231232 USEFUL:     822442 USELESS:       1982
cpu7_L1D AVERAGE MISS LATENCY: 60.05 cycles
cpu7_L1D TOTAL        ACCESS:          0 HIT:          0 MISS:          0
cpu7_L1D LOAD         ACCESS:          0 HIT:          0 MISS:          0
cpu7_L1D RFO          ACCESS:          0 HIT:          0 MISS:          0
cpu7_L1D PREFETCH     ACCESS:          0 HIT:          0 MISS:          0
cpu7_L1D WRITE        ACCESS:          0 HIT:          0 MISS:          0
cpu7_L1D TRANSLATION  ACCESS:          0 HIT:          0 MISS:          0
cpu7_L1D PREFETCH REQUESTED:    1231299 ISSUED:    1231232 USEFUL:     822442 USELESS:       1982
cpu7_L1D AVERAGE MISS LATENCY: 60.05 cycles
cpu7_L1D TOTAL        ACCESS:          0 HIT:          0 MISS:          0
cpu7_L1D LOAD         ACCESS:          0 HIT:          0 MISS:          0
cpu7_L1D RFO          ACCESS:          0 HIT:          0 MISS:          0
cpu7_L1D PREFETCH     ACCESS:          0 HIT:          0 MISS:          0
cpu7_L1D WRITE        ACCESS:          0 HIT:          0 MISS:          0
cpu7_L1D TRANSLATION  ACCESS:          0 HIT:          0 MISS:          0
cpu7_L1D PREFETCH REQUESTED:    1231299 ISSUED:    1231232 USEFUL:     822442 USELESS:       1982
cpu7_L1D AVERAGE MISS LATENCY: 60.05 cycles
cpu7_L1D TOTAL        ACCESS:   63907797 HIT:   56040043 MISS:    7867754
cpu7_L1D LOAD         ACCESS:   48498065 HIT:   41539369 MISS:    6958696
cpu7_L1D RFO          ACCESS:          0 HIT:          0 MISS:          0
cpu7_L1D PREFETCH     ACCESS:    1231232 HIT:     341934 MISS:     889298
cpu7_L1D WRITE        ACCESS:   14151388 HIT:   14132722 MISS:      18666
cpu7_L1D TRANSLATION  ACCESS:      27112 HIT:      26018 MISS:       1094
cpu7_L1D PREFETCH REQUESTED:    1231299 ISSUED:    1231232 USEFUL:     822442 USELESS:       1982
cpu7_L1D AVERAGE MISS LATENCY: 60.05 cycles
cpu7_L1I TOTAL        ACCESS:          0 HIT:          0 MISS:          0
cpu7_L1I LOAD         ACCESS:          0 HIT:          0 MISS:          0
cpu7_L1I RFO          ACCESS:          0 HIT:          0 MISS:          0
cpu7_L1I PREFETCH     ACCESS:          0 HIT:          0 MISS:          0
cpu7_L1I WRITE        ACCESS:          0 HIT:          0 MISS:          0
cpu7_L1I TRANSLATION  ACCESS:          0 HIT:          0 MISS:          0
cpu7_L1I PREFETCH REQUESTED:          0 ISSUED:          0 USEFUL:          0 USELESS:          0
cpu7_L1I AVERAGE MISS LATENCY: 248.6 cycles
cpu7_L1I TOTAL        ACCESS:          0 HIT:          0 MISS:          0
cpu7_L1I LOAD         ACCESS:          0 HIT:          0 MISS:          0
cpu7_L1I RFO          ACCESS:          0 HIT:          0 MISS:          0
cpu7_L1I PREFETCH     ACCESS:          0 HIT:          0 MISS:          0
cpu7_L1I WRITE        ACCESS:          0 HIT:          0 MISS:          0
cpu7_L1I TRANSLATION  ACCESS:          0 HIT:          0 MISS:          0
cpu7_L1I PREFETCH REQUESTED:          0 ISSUED:          0 USEFUL:          0 USELESS:          0
cpu7_L1I AVERAGE MISS LATENCY: 248.6 cycles
cpu7_L1I TOTAL        ACCESS:          0 HIT:          0 MISS:          0
cpu7_L1I LOAD         ACCESS:          0 HIT:          0 MISS:          0
cpu7_L1I RFO          ACCESS:          0 HIT:          0 MISS:          0
cpu7_L1I PREFETCH     ACCESS:          0 HIT:          0 MISS:          0
cpu7_L1I WRITE        ACCESS:          0 HIT:          0 MISS:          0
cpu7_L1I TRANSLATION  ACCESS:          0 HIT:          0 MISS:          0
cpu7_L1I PREFETCH REQUESTED:          0 ISSUED:          0 USEFUL:          0 USELESS:          0
cpu7_L1I AVERAGE MISS LATENCY: 248.6 cycles
cpu7_L1I TOTAL        ACCESS:          0 HIT:          0 MISS:          0
cpu7_L1I LOAD         ACCESS:          0 HIT:          0 MISS:          0
cpu7_L1I RFO          ACCESS:          0 HIT:          0 MISS:          0
cpu7_L1I PREFETCH     ACCESS:          0 HIT:          0 MISS:          0
cpu7_L1I WRITE        ACCESS:          0 HIT:          0 MISS:          0
cpu7_L1I TRANSLATION  ACCESS:          0 HIT:          0 MISS:          0
cpu7_L1I PREFETCH REQUESTED:          0 ISSUED:          0 USEFUL:          0 USELESS:          0
cpu7_L1I AVERAGE MISS LATENCY: 248.6 cycles
cpu7_L1I TOTAL        ACCESS:          0 HIT:          0 MISS:          0
cpu7_L1I LOAD         ACCESS:          0 HIT:          0 MISS:          0
cpu7_L1I RFO          ACCESS:          0 HIT:          0 MISS:          0
cpu7_L1I PREFETCH     ACCESS:          0 HIT:          0 MISS:          0
cpu7_L1I WRITE        ACCESS:          0 HIT:          0 MISS:          0
cpu7_L1I TRANSLATION  ACCESS:          0 HIT:          0 MISS:          0
cpu7_L1I PREFETCH REQUESTED:          0 ISSUED:          0 USEFUL:          0 USELESS:          0
cpu7_L1I AVERAGE MISS LATENCY: 248.6 cycles
cpu7_L1I TOTAL        ACCESS:          0 HIT:          0 MISS:          0
cpu7_L1I LOAD         ACCESS:          0 HIT:          0 MISS:          0
cpu7_L1I RFO          ACCESS:          0 HIT:          0 MISS:          0
cpu7_L1I PREFETCH     ACCESS:          0 HIT:          0 MISS:          0
cpu7_L1I WRITE        ACCESS:          0 HIT:          0 MISS:          0
cpu7_L1I TRANSLATION  ACCESS:          0 HIT:          0 MISS:          0
cpu7_L1I PREFETCH REQUESTED:          0 ISSUED:          0 USEFUL:          0 USELESS:          0
cpu7_L1I AVERAGE MISS LATENCY: 248.6 cycles
cpu7_L1I TOTAL        ACCESS:          0 HIT:          0 MISS:          0
cpu7_L1I LOAD         ACCESS:          0 HIT:          0 MISS:          0
cpu7_L1I RFO          ACCESS:          0 HIT:          0 MISS:          0
cpu7_L1I PREFETCH     ACCESS:          0 HIT:          0 MISS:          0
cpu7_L1I WRITE        ACCESS:          0 HIT:          0 MISS:          0
cpu7_L1I TRANSLATION  ACCESS:          0 HIT:          0 MISS:          0
cpu7_L1I PREFETCH REQUESTED:          0 ISSUED:          0 USEFUL:          0 USELESS:          0
cpu7_L1I AVERAGE MISS LATENCY: 248.6 cycles
cpu7_L1I TOTAL        ACCESS:       3417 HIT:       3017 MISS:        400
cpu7_L1I LOAD         ACCESS:       3417 HIT:       3017 MISS:        400
cpu7_L1I RFO          ACCESS:          0 HIT:          0 MISS:          0
cpu7_L1I PREFETCH     ACCESS:          0 HIT:          0 MISS:          0
cpu7_L1I WRITE        ACCESS:          0 HIT:          0 MISS:          0
cpu7_L1I TRANSLATION  ACCESS:          0 HIT:          0 MISS:          0
cpu7_L1I PREFETCH REQUESTED:          0 ISSUED:          0 USEFUL:          0 USELESS:          0
cpu7_L1I AVERAGE MISS LATENCY: 248.6 cycles
cpu7_L2C TOTAL        ACCESS:          0 HIT:          0 MISS:          0
cpu7_L2C LOAD         ACCESS:          0 HIT:          0 MISS:          0
cpu7_L2C RFO          ACCESS:          0 HIT:          0 MISS:          0
cpu7_L2C PREFETCH     ACCESS:          0 HIT:          0 MISS:          0
cpu7_L2C WRITE        ACCESS:          0 HIT:          0 MISS:          0
cpu7_L2C TRANSLATION  ACCESS:          0 HIT:          0 MISS:          0
cpu7_L2C PREFETCH REQUESTED:    4568818 ISSUED:    4568815 USEFUL:    1471252 USELESS:       6405
cpu7_L2C AVERAGE MISS LATENCY: 177.3 cycles
cpu7_L2C TOTAL        ACCESS:          0 HIT:          0 MISS:          0
cpu7_L2C LOAD         ACCESS:          0 HIT:          0 MISS:          0
cpu7_L2C RFO          ACCESS:          0 HIT:          0 MISS:          0
cpu7_L2C PREFETCH     ACCESS:          0 HIT:          0 MISS:          0
cpu7_L2C WRITE        ACCESS:          0 HIT:          0 MISS:          0
cpu7_L2C TRANSLATION  ACCESS:          0 HIT:          0 MISS:          0
cpu7_L2C PREFETCH REQUESTED:    4568818 ISSUED:    4568815 USEFUL:    1471252 USELESS:       6405
cpu7_L2C AVERAGE MISS LATENCY: 177.3 cycles
cpu7_L2C TOTAL        ACCESS:          0 HIT:          0 MISS:          0
cpu7_L2C LOAD         ACCESS:          0 HIT:          0 MISS:          0
cpu7_L2C RFO          ACCESS:          0 HIT:          0 MISS:          0
cpu7_L2C PREFETCH     ACCESS:          0 HIT:          0 MISS:          0
cpu7_L2C WRITE        ACCESS:          0 HIT:          0 MISS:          0
cpu7_L2C TRANSLATION  ACCESS:          0 HIT:          0 MISS:          0
cpu7_L2C PREFETCH REQUESTED:    4568818 ISSUED:    4568815 USEFUL:    1471252 USELESS:       6405
cpu7_L2C AVERAGE MISS LATENCY: 177.3 cycles
cpu7_L2C TOTAL        ACCESS:          0 HIT:          0 MISS:          0
cpu7_L2C LOAD         ACCESS:          0 HIT:          0 MISS:          0
cpu7_L2C RFO          ACCESS:          0 HIT:          0 MISS:          0
cpu7_L2C PREFETCH     ACCESS:          0 HIT:          0 MISS:          0
cpu7_L2C WRITE        ACCESS:          0 HIT:          0 MISS:          0
cpu7_L2C TRANSLATION  ACCESS:          0 HIT:          0 MISS:          0
cpu7_L2C PREFETCH REQUESTED:    4568818 ISSUED:    4568815 USEFUL:    1471252 USELESS:       6405
cpu7_L2C AVERAGE MISS LATENCY: 177.3 cycles
cpu7_L2C TOTAL        ACCESS:          0 HIT:          0 MISS:          0
cpu7_L2C LOAD         ACCESS:          0 HIT:          0 MISS:          0
cpu7_L2C RFO          ACCESS:          0 HIT:          0 MISS:          0
cpu7_L2C PREFETCH     ACCESS:          0 HIT:          0 MISS:          0
cpu7_L2C WRITE        ACCESS:          0 HIT:          0 MISS:          0
cpu7_L2C TRANSLATION  ACCESS:          0 HIT:          0 MISS:          0
cpu7_L2C PREFETCH REQUESTED:    4568818 ISSUED:    4568815 USEFUL:    1471252 USELESS:       6405
cpu7_L2C AVERAGE MISS LATENCY: 177.3 cycles
cpu7_L2C TOTAL        ACCESS:          0 HIT:          0 MISS:          0
cpu7_L2C LOAD         ACCESS:          0 HIT:          0 MISS:          0
cpu7_L2C RFO          ACCESS:          0 HIT:          0 MISS:          0
cpu7_L2C PREFETCH     ACCESS:          0 HIT:          0 MISS:          0
cpu7_L2C WRITE        ACCESS:          0 HIT:          0 MISS:          0
cpu7_L2C TRANSLATION  ACCESS:          0 HIT:          0 MISS:          0
cpu7_L2C PREFETCH REQUESTED:    4568818 ISSUED:    4568815 USEFUL:    1471252 USELESS:       6405
cpu7_L2C AVERAGE MISS LATENCY: 177.3 cycles
cpu7_L2C TOTAL        ACCESS:          0 HIT:          0 MISS:          0
cpu7_L2C LOAD         ACCESS:          0 HIT:          0 MISS:          0
cpu7_L2C RFO          ACCESS:          0 HIT:          0 MISS:          0
cpu7_L2C PREFETCH     ACCESS:          0 HIT:          0 MISS:          0
cpu7_L2C WRITE        ACCESS:          0 HIT:          0 MISS:          0
cpu7_L2C TRANSLATION  ACCESS:          0 HIT:          0 MISS:          0
cpu7_L2C PREFETCH REQUESTED:    4568818 ISSUED:    4568815 USEFUL:    1471252 USELESS:       6405
cpu7_L2C AVERAGE MISS LATENCY: 177.3 cycles
cpu7_L2C TOTAL        ACCESS:    8913164 HIT:    4330106 MISS:    4583058
cpu7_L2C LOAD         ACCESS:    1777000 HIT:     663167 MISS:    1113833
cpu7_L2C RFO          ACCESS:       5030 HIT:       4325 MISS:        705
cpu7_L2C PREFETCH     ACCESS:    5401375 HIT:    1933262 MISS:    3468113
cpu7_L2C WRITE        ACCESS:    1728675 HIT:    1728675 MISS:          0
cpu7_L2C TRANSLATION  ACCESS:       1084 HIT:        677 MISS:        407
cpu7_L2C PREFETCH REQUESTED:    4568818 ISSUED:    4568815 USEFUL:    1471252 USELESS:       6405
cpu7_L2C AVERAGE MISS LATENCY: 177.3 cycles
cpu7_STLB TOTAL        ACCESS:          0 HIT:          0 MISS:          0
cpu7_STLB LOAD         ACCESS:          0 HIT:          0 MISS:          0
cpu7_STLB RFO          ACCESS:          0 HIT:          0 MISS:          0
cpu7_STLB PREFETCH     ACCESS:          0 HIT:          0 MISS:          0
cpu7_STLB WRITE        ACCESS:          0 HIT:          0 MISS:          0
cpu7_STLB TRANSLATION  ACCESS:          0 HIT:          0 MISS:          0
cpu7_STLB PREFETCH REQUESTED:          0 ISSUED:          0 USEFUL:          0 USELESS:          0
cpu7_STLB AVERAGE MISS LATENCY: 212.7 cycles
cpu7_STLB TOTAL        ACCESS:          0 HIT:          0 MISS:          0
cpu7_STLB LOAD         ACCESS:          0 HIT:          0 MISS:          0
cpu7_STLB RFO          ACCESS:          0 HIT:          0 MISS:          0
cpu7_STLB PREFETCH     ACCESS:          0 HIT:          0 MISS:          0
cpu7_STLB WRITE        ACCESS:          0 HIT:          0 MISS:          0
cpu7_STLB TRANSLATION  ACCESS:          0 HIT:          0 MISS:          0
cpu7_STLB PREFETCH REQUESTED:          0 ISSUED:          0 USEFUL:          0 USELESS:          0
cpu7_STLB AVERAGE MISS LATENCY: 212.7 cycles
cpu7_STLB TOTAL        ACCESS:          0 HIT:          0 MISS:          0
cpu7_STLB LOAD         ACCESS:          0 HIT:          0 MISS:          0
cpu7_STLB RFO          ACCESS:          0 HIT:          0 MISS:          0
cpu7_STLB PREFETCH     ACCESS:          0 HIT:          0 MISS:          0
cpu7_STLB WRITE        ACCESS:          0 HIT:          0 MISS:          0
cpu7_STLB TRANSLATION  ACCESS:          0 HIT:          0 MISS:          0
cpu7_STLB PREFETCH REQUESTED:          0 ISSUED:          0 USEFUL:          0 USELESS:          0
cpu7_STLB AVERAGE MISS LATENCY: 212.7 cycles
cpu7_STLB TOTAL        ACCESS:          0 HIT:          0 MISS:          0
cpu7_STLB LOAD         ACCESS:          0 HIT:          0 MISS:          0
cpu7_STLB RFO          ACCESS:          0 HIT:          0 MISS:          0
cpu7_STLB PREFETCH     ACCESS:          0 HIT:          0 MISS:          0
cpu7_STLB WRITE        ACCESS:          0 HIT:          0 MISS:          0
cpu7_STLB TRANSLATION  ACCESS:          0 HIT:          0 MISS:          0
cpu7_STLB PREFETCH REQUESTED:          0 ISSUED:          0 USEFUL:          0 USELESS:          0
cpu7_STLB AVERAGE MISS LATENCY: 212.7 cycles
cpu7_STLB TOTAL        ACCESS:          0 HIT:          0 MISS:          0
cpu7_STLB LOAD         ACCESS:          0 HIT:          0 MISS:          0
cpu7_STLB RFO          ACCESS:          0 HIT:          0 MISS:          0
cpu7_STLB PREFETCH     ACCESS:          0 HIT:          0 MISS:          0
cpu7_STLB WRITE        ACCESS:          0 HIT:          0 MISS:          0
cpu7_STLB TRANSLATION  ACCESS:          0 HIT:          0 MISS:          0
cpu7_STLB PREFETCH REQUESTED:          0 ISSUED:          0 USEFUL:          0 USELESS:          0
cpu7_STLB AVERAGE MISS LATENCY: 212.7 cycles
cpu7_STLB TOTAL        ACCESS:          0 HIT:          0 MISS:          0
cpu7_STLB LOAD         ACCESS:          0 HIT:          0 MISS:          0
cpu7_STLB RFO          ACCESS:          0 HIT:          0 MISS:          0
cpu7_STLB PREFETCH     ACCESS:          0 HIT:          0 MISS:          0
cpu7_STLB WRITE        ACCESS:          0 HIT:          0 MISS:          0
cpu7_STLB TRANSLATION  ACCESS:          0 HIT:          0 MISS:          0
cpu7_STLB PREFETCH REQUESTED:          0 ISSUED:          0 USEFUL:          0 USELESS:          0
cpu7_STLB AVERAGE MISS LATENCY: 212.7 cycles
cpu7_STLB TOTAL        ACCESS:          0 HIT:          0 MISS:          0
cpu7_STLB LOAD         ACCESS:          0 HIT:          0 MISS:          0
cpu7_STLB RFO          ACCESS:          0 HIT:          0 MISS:          0
cpu7_STLB PREFETCH     ACCESS:          0 HIT:          0 MISS:          0
cpu7_STLB WRITE        ACCESS:          0 HIT:          0 MISS:          0
cpu7_STLB TRANSLATION  ACCESS:          0 HIT:          0 MISS:          0
cpu7_STLB PREFETCH REQUESTED:          0 ISSUED:          0 USEFUL:          0 USELESS:          0
cpu7_STLB AVERAGE MISS LATENCY: 212.7 cycles
cpu7_STLB TOTAL        ACCESS:      45985 HIT:      18982 MISS:      27003
cpu7_STLB LOAD         ACCESS:      45985 HIT:      18982 MISS:      27003
cpu7_STLB RFO          ACCESS:          0 HIT:          0 MISS:          0
cpu7_STLB PREFETCH     ACCESS:          0 HIT:          0 MISS:          0
cpu7_STLB WRITE        ACCESS:          0 HIT:          0 MISS:          0
cpu7_STLB TRANSLATION  ACCESS:          0 HIT:          0 MISS:          0
cpu7_STLB PREFETCH REQUESTED:          0 ISSUED:          0 USEFUL:          0 USELESS:          0
cpu7_STLB AVERAGE MISS LATENCY: 212.7 cycles

DRAM Statistics

Channel 0 RQ ROW_BUFFER_HIT:    1373873
  ROW_BUFFER_MISS:    2623802
 AVG DBUS CONGESTED CYCLE: 3.903

Channel 0 WQ ROW_BUFFER_HIT:       1170
  ROW_BUFFER_MISS:       2577
  FULL:          0

Channel 1 RQ ROW_BUFFER_HIT:    1366575
  ROW_BUFFER_MISS:    2625872
 AVG DBUS CONGESTED CYCLE: 3.903

Channel 1 WQ ROW_BUFFER_HIT:       1120
  ROW_BUFFER_MISS:       2692
  FULL:          0
