WARNING: physical memory size is smaller than virtual memory size.

*** ChampSim Multicore Out-of-Order Simulator ***
Warmup Instructions: 200000000
Simulation Instructions: 200000000
Number of CPUs: 2
Page size: 4096

Off-chip DRAM Size: 8 GiB Channels: 2 Width: 64-bit Data Race: 3200 MT/s
Heartbeat CPU 1 instructions: 10000002 cycles: 2500170 heartbeat IPC: 4 cumulative IPC: 4 (Simulation time: 00 hr 00 min 45 sec)
Heartbeat CPU 0 instructions: 10000002 cycles: 2947492 heartbeat IPC: 3.393 cumulative IPC: 3.393 (Simulation time: 00 hr 00 min 54 sec)
Heartbeat CPU 1 instructions: 20000002 cycles: 5000170 heartbeat IPC: 4 cumulative IPC: 4 (Simulation time: 00 hr 01 min 31 sec)
Heartbeat CPU 0 instructions: 20000003 cycles: 5888566 heartbeat IPC: 3.4 cumulative IPC: 3.396 (Simulation time: 00 hr 01 min 48 sec)
Heartbeat CPU 1 instructions: 30000002 cycles: 7500170 heartbeat IPC: 4 cumulative IPC: 4 (Simulation time: 00 hr 02 min 17 sec)
Heartbeat CPU 0 instructions: 30000002 cycles: 8820380 heartbeat IPC: 3.411 cumulative IPC: 3.401 (Simulation time: 00 hr 02 min 41 sec)
Heartbeat CPU 1 instructions: 40000002 cycles: 10000170 heartbeat IPC: 4 cumulative IPC: 4 (Simulation time: 00 hr 03 min 03 sec)
Heartbeat CPU 0 instructions: 40000002 cycles: 11772556 heartbeat IPC: 3.387 cumulative IPC: 3.398 (Simulation time: 00 hr 03 min 36 sec)
Heartbeat CPU 1 instructions: 50000002 cycles: 12500170 heartbeat IPC: 4 cumulative IPC: 4 (Simulation time: 00 hr 03 min 50 sec)
Heartbeat CPU 0 instructions: 50000003 cycles: 14726448 heartbeat IPC: 3.385 cumulative IPC: 3.395 (Simulation time: 00 hr 04 min 30 sec)
Heartbeat CPU 1 instructions: 60000002 cycles: 15000170 heartbeat IPC: 4 cumulative IPC: 4 (Simulation time: 00 hr 04 min 35 sec)
Heartbeat CPU 1 instructions: 70000002 cycles: 17500170 heartbeat IPC: 4 cumulative IPC: 4 (Simulation time: 00 hr 05 min 21 sec)
Heartbeat CPU 0 instructions: 60000002 cycles: 17693550 heartbeat IPC: 3.37 cumulative IPC: 3.391 (Simulation time: 00 hr 05 min 25 sec)
Heartbeat CPU 1 instructions: 80000002 cycles: 20000170 heartbeat IPC: 4 cumulative IPC: 4 (Simulation time: 00 hr 06 min 07 sec)
Heartbeat CPU 0 instructions: 70000001 cycles: 20654290 heartbeat IPC: 3.378 cumulative IPC: 3.389 (Simulation time: 00 hr 06 min 19 sec)
Heartbeat CPU 1 instructions: 90000002 cycles: 22500170 heartbeat IPC: 4 cumulative IPC: 4 (Simulation time: 00 hr 06 min 53 sec)
Heartbeat CPU 0 instructions: 80000002 cycles: 23594460 heartbeat IPC: 3.401 cumulative IPC: 3.391 (Simulation time: 00 hr 07 min 13 sec)
Heartbeat CPU 1 instructions: 100000002 cycles: 25000170 heartbeat IPC: 4 cumulative IPC: 4 (Simulation time: 00 hr 07 min 39 sec)
Heartbeat CPU 0 instructions: 90000000 cycles: 26549721 heartbeat IPC: 3.384 cumulative IPC: 3.39 (Simulation time: 00 hr 08 min 07 sec)
Heartbeat CPU 1 instructions: 110000002 cycles: 27500170 heartbeat IPC: 4 cumulative IPC: 4 (Simulation time: 00 hr 08 min 25 sec)
Heartbeat CPU 0 instructions: 100000000 cycles: 29495492 heartbeat IPC: 3.395 cumulative IPC: 3.39 (Simulation time: 00 hr 09 min 02 sec)
Heartbeat CPU 1 instructions: 120000002 cycles: 30000170 heartbeat IPC: 4 cumulative IPC: 4 (Simulation time: 00 hr 09 min 11 sec)
Heartbeat CPU 0 instructions: 110000002 cycles: 32452752 heartbeat IPC: 3.382 cumulative IPC: 3.39 (Simulation time: 00 hr 09 min 56 sec)
Heartbeat CPU 1 instructions: 130000002 cycles: 32500170 heartbeat IPC: 4 cumulative IPC: 4 (Simulation time: 00 hr 09 min 57 sec)
Heartbeat CPU 1 instructions: 140000002 cycles: 35000170 heartbeat IPC: 4 cumulative IPC: 4 (Simulation time: 00 hr 10 min 43 sec)
Heartbeat CPU 0 instructions: 120000000 cycles: 35424812 heartbeat IPC: 3.365 cumulative IPC: 3.387 (Simulation time: 00 hr 10 min 50 sec)
Heartbeat CPU 1 instructions: 150000002 cycles: 37500170 heartbeat IPC: 4 cumulative IPC: 4 (Simulation time: 00 hr 11 min 28 sec)
Heartbeat CPU 0 instructions: 130000002 cycles: 38370730 heartbeat IPC: 3.395 cumulative IPC: 3.388 (Simulation time: 00 hr 11 min 44 sec)
Heartbeat CPU 1 instructions: 160000002 cycles: 40000170 heartbeat IPC: 4 cumulative IPC: 4 (Simulation time: 00 hr 12 min 14 sec)
Heartbeat CPU 0 instructions: 140000001 cycles: 41323027 heartbeat IPC: 3.387 cumulative IPC: 3.388 (Simulation time: 00 hr 12 min 38 sec)
Heartbeat CPU 1 instructions: 170000002 cycles: 42500170 heartbeat IPC: 4 cumulative IPC: 4 (Simulation time: 00 hr 12 min 59 sec)
Heartbeat CPU 0 instructions: 150000003 cycles: 44294213 heartbeat IPC: 3.366 cumulative IPC: 3.386 (Simulation time: 00 hr 13 min 32 sec)
Heartbeat CPU 1 instructions: 180000002 cycles: 45000170 heartbeat IPC: 4 cumulative IPC: 4 (Simulation time: 00 hr 13 min 45 sec)
Heartbeat CPU 0 instructions: 160000003 cycles: 47272427 heartbeat IPC: 3.358 cumulative IPC: 3.385 (Simulation time: 00 hr 14 min 27 sec)
Heartbeat CPU 1 instructions: 190000002 cycles: 47500170 heartbeat IPC: 4 cumulative IPC: 4 (Simulation time: 00 hr 14 min 31 sec)
Heartbeat CPU 1 instructions: 200000002 cycles: 50000170 heartbeat IPC: 4 cumulative IPC: 4 (Simulation time: 00 hr 15 min 17 sec)
Warmup finished CPU 1 instructions: 200000002 cycles: 50000171 cumulative IPC: 4 (Simulation time: 00 hr 15 min 17 sec)
Heartbeat CPU 0 instructions: 170000000 cycles: 50243905 heartbeat IPC: 3.365 cumulative IPC: 3.383 (Simulation time: 00 hr 15 min 21 sec)
Heartbeat CPU 1 instructions: 210000002 cycles: 52500170 heartbeat IPC: 4 cumulative IPC: 4 (Simulation time: 00 hr 16 min 02 sec)
Heartbeat CPU 0 instructions: 180000001 cycles: 53211767 heartbeat IPC: 3.369 cumulative IPC: 3.383 (Simulation time: 00 hr 16 min 15 sec)
Heartbeat CPU 1 instructions: 220000002 cycles: 55000170 heartbeat IPC: 4 cumulative IPC: 4 (Simulation time: 00 hr 16 min 48 sec)
Heartbeat CPU 0 instructions: 190000003 cycles: 56186380 heartbeat IPC: 3.362 cumulative IPC: 3.382 (Simulation time: 00 hr 17 min 10 sec)
Heartbeat CPU 1 instructions: 230000002 cycles: 57500170 heartbeat IPC: 4 cumulative IPC: 4 (Simulation time: 00 hr 17 min 34 sec)
Heartbeat CPU 0 instructions: 200000001 cycles: 59152028 heartbeat IPC: 3.372 cumulative IPC: 3.381 (Simulation time: 00 hr 18 min 04 sec)
Warmup finished CPU 0 instructions: 200000001 cycles: 59152029 cumulative IPC: 3.381 (Simulation time: 00 hr 18 min 04 sec)
Warmup complete CPU 0 instructions: 200000001 cycles: 59152029 cumulative IPC: 3.381 (Simulation time: 00 hr 18 min 04 sec)
Warmup complete CPU 1 instructions: 236607434 cycles: 59152029 cumulative IPC: 4 (Simulation time: 00 hr 18 min 04 sec)
Heartbeat CPU 1 instructions: 240000002 cycles: 63062110 heartbeat IPC: 1.798 cumulative IPC: 0.8676 (Simulation time: 00 hr 18 min 45 sec)
Heartbeat CPU 1 instructions: 250000003 cycles: 68477630 heartbeat IPC: 1.847 cumulative IPC: 1.436 (Simulation time: 00 hr 19 min 48 sec)
Heartbeat CPU 1 instructions: 260000002 cycles: 72905412 heartbeat IPC: 2.258 cumulative IPC: 1.701 (Simulation time: 00 hr 20 min 42 sec)
Heartbeat CPU 1 instructions: 270000002 cycles: 78151927 heartbeat IPC: 1.906 cumulative IPC: 1.758 (Simulation time: 00 hr 21 min 44 sec)
Heartbeat CPU 0 instructions: 210000000 cycles: 79403995 heartbeat IPC: 0.4938 cumulative IPC: 0.4938 (Simulation time: 00 hr 22 min 00 sec)
Heartbeat CPU 1 instructions: 280000002 cycles: 82776587 heartbeat IPC: 2.162 cumulative IPC: 1.837 (Simulation time: 00 hr 22 min 40 sec)
Heartbeat CPU 1 instructions: 290000003 cycles: 86693625 heartbeat IPC: 2.553 cumulative IPC: 1.939 (Simulation time: 00 hr 23 min 30 sec)
Heartbeat CPU 1 instructions: 300000001 cycles: 91175869 heartbeat IPC: 2.231 cumulative IPC: 1.98 (Simulation time: 00 hr 24 min 24 sec)
Heartbeat CPU 1 instructions: 310000001 cycles: 94962160 heartbeat IPC: 2.641 cumulative IPC: 2.049 (Simulation time: 00 hr 25 min 12 sec)
Heartbeat CPU 1 instructions: 320000000 cycles: 98639587 heartbeat IPC: 2.719 cumulative IPC: 2.112 (Simulation time: 00 hr 25 min 59 sec)
Heartbeat CPU 0 instructions: 220000000 cycles: 99426075 heartbeat IPC: 0.4994 cumulative IPC: 0.4966 (Simulation time: 00 hr 26 min 09 sec)
Heartbeat CPU 1 instructions: 330000003 cycles: 102313305 heartbeat IPC: 2.722 cumulative IPC: 2.164 (Simulation time: 00 hr 26 min 46 sec)
Heartbeat CPU 1 instructions: 340000001 cycles: 106767809 heartbeat IPC: 2.245 cumulative IPC: 2.171 (Simulation time: 00 hr 27 min 40 sec)
Heartbeat CPU 1 instructions: 350000000 cycles: 110681472 heartbeat IPC: 2.555 cumulative IPC: 2.201 (Simulation time: 00 hr 28 min 29 sec)
Heartbeat CPU 1 instructions: 360000002 cycles: 114793200 heartbeat IPC: 2.432 cumulative IPC: 2.218 (Simulation time: 00 hr 29 min 20 sec)
Heartbeat CPU 1 instructions: 370000002 cycles: 119090676 heartbeat IPC: 2.327 cumulative IPC: 2.225 (Simulation time: 00 hr 30 min 13 sec)
Heartbeat CPU 0 instructions: 230000003 cycles: 120100451 heartbeat IPC: 0.4837 cumulative IPC: 0.4922 (Simulation time: 00 hr 30 min 25 sec)
Heartbeat CPU 1 instructions: 380000003 cycles: 127696541 heartbeat IPC: 1.162 cumulative IPC: 2.092 (Simulation time: 00 hr 31 min 45 sec)
Heartbeat CPU 1 instructions: 390000003 cycles: 133163225 heartbeat IPC: 1.829 cumulative IPC: 2.073 (Simulation time: 00 hr 32 min 50 sec)
Heartbeat CPU 1 instructions: 400000001 cycles: 137503473 heartbeat IPC: 2.304 cumulative IPC: 2.085 (Simulation time: 00 hr 33 min 43 sec)
Heartbeat CPU 0 instructions: 240000001 cycles: 141184222 heartbeat IPC: 0.4743 cumulative IPC: 0.4876 (Simulation time: 00 hr 34 min 29 sec)
Heartbeat CPU 1 instructions: 410000001 cycles: 141508961 heartbeat IPC: 2.497 cumulative IPC: 2.105 (Simulation time: 00 hr 34 min 33 sec)
Heartbeat CPU 1 instructions: 420000003 cycles: 145365999 heartbeat IPC: 2.593 cumulative IPC: 2.127 (Simulation time: 00 hr 35 min 21 sec)
Heartbeat CPU 1 instructions: 430000002 cycles: 152629215 heartbeat IPC: 1.377 cumulative IPC: 2.069 (Simulation time: 00 hr 36 min 42 sec)
Simulation finished CPU 1 instructions: 200000003 cycles: 95936707 cumulative IPC: 2.085 (Simulation time: 00 hr 37 min 14 sec)
Heartbeat CPU 1 instructions: 440000000 cycles: 158662099 heartbeat IPC: 1.658 cumulative IPC: 2.044 (Simulation time: 00 hr 37 min 52 sec)
Heartbeat CPU 0 instructions: 250000000 cycles: 161729602 heartbeat IPC: 0.4867 cumulative IPC: 0.4874 (Simulation time: 00 hr 38 min 23 sec)
Heartbeat CPU 1 instructions: 450000001 cycles: 171250014 heartbeat IPC: 0.7944 cumulative IPC: 1.904 (Simulation time: 00 hr 40 min 04 sec)
Heartbeat CPU 1 instructions: 460000000 cycles: 178624541 heartbeat IPC: 1.356 cumulative IPC: 1.87 (Simulation time: 00 hr 41 min 26 sec)
Heartbeat CPU 0 instructions: 260000002 cycles: 182320973 heartbeat IPC: 0.4856 cumulative IPC: 0.4871 (Simulation time: 00 hr 42 min 08 sec)
Heartbeat CPU 1 instructions: 470000003 cycles: 185052167 heartbeat IPC: 1.556 cumulative IPC: 1.854 (Simulation time: 00 hr 42 min 40 sec)
Heartbeat CPU 1 instructions: 480000003 cycles: 190555737 heartbeat IPC: 1.817 cumulative IPC: 1.852 (Simulation time: 00 hr 43 min 45 sec)
Heartbeat CPU 0 instructions: 270000001 cycles: 207337844 heartbeat IPC: 0.3997 cumulative IPC: 0.4724 (Simulation time: 00 hr 46 min 34 sec)
Heartbeat CPU 1 instructions: 490000001 cycles: 215252915 heartbeat IPC: 0.4049 cumulative IPC: 1.623 (Simulation time: 00 hr 47 min 52 sec)
Heartbeat CPU 0 instructions: 280000002 cycles: 228773916 heartbeat IPC: 0.4665 cumulative IPC: 0.4716 (Simulation time: 00 hr 50 min 03 sec)
Heartbeat CPU 1 instructions: 500000000 cycles: 246555939 heartbeat IPC: 0.3195 cumulative IPC: 1.405 (Simulation time: 00 hr 52 min 55 sec)
Heartbeat CPU 0 instructions: 290000000 cycles: 250540399 heartbeat IPC: 0.4594 cumulative IPC: 0.4702 (Simulation time: 00 hr 53 min 34 sec)
Heartbeat CPU 1 instructions: 510000001 cycles: 271391832 heartbeat IPC: 0.4026 cumulative IPC: 1.288 (Simulation time: 00 hr 57 min 00 sec)
Heartbeat CPU 0 instructions: 300000002 cycles: 272141223 heartbeat IPC: 0.4629 cumulative IPC: 0.4695 (Simulation time: 00 hr 57 min 08 sec)
Heartbeat CPU 1 instructions: 520000000 cycles: 283011891 heartbeat IPC: 0.8606 cumulative IPC: 1.266 (Simulation time: 00 hr 59 min 03 sec)
Heartbeat CPU 0 instructions: 310000000 cycles: 292925677 heartbeat IPC: 0.4811 cumulative IPC: 0.4705 (Simulation time: 01 hr 00 min 48 sec)
Heartbeat CPU 1 instructions: 530000002 cycles: 294821861 heartbeat IPC: 0.8467 cumulative IPC: 1.245 (Simulation time: 01 hr 01 min 08 sec)
Heartbeat CPU 1 instructions: 540000002 cycles: 306151679 heartbeat IPC: 0.8826 cumulative IPC: 1.228 (Simulation time: 01 hr 03 min 08 sec)
Heartbeat CPU 0 instructions: 320000002 cycles: 313514184 heartbeat IPC: 0.4857 cumulative IPC: 0.4718 (Simulation time: 01 hr 04 min 27 sec)
Heartbeat CPU 1 instructions: 550000000 cycles: 317688601 heartbeat IPC: 0.8668 cumulative IPC: 1.212 (Simulation time: 01 hr 05 min 11 sec)
Heartbeat CPU 1 instructions: 560000003 cycles: 330604538 heartbeat IPC: 0.7742 cumulative IPC: 1.191 (Simulation time: 01 hr 07 min 25 sec)
Heartbeat CPU 0 instructions: 330000000 cycles: 336165266 heartbeat IPC: 0.4415 cumulative IPC: 0.4693 (Simulation time: 01 hr 08 min 20 sec)
Heartbeat CPU 1 instructions: 570000003 cycles: 355941193 heartbeat IPC: 0.3947 cumulative IPC: 1.123 (Simulation time: 01 hr 11 min 44 sec)
Heartbeat CPU 0 instructions: 340000001 cycles: 358350343 heartbeat IPC: 0.4508 cumulative IPC: 0.4679 (Simulation time: 01 hr 12 min 08 sec)
Heartbeat CPU 1 instructions: 580000000 cycles: 376955507 heartbeat IPC: 0.4759 cumulative IPC: 1.081 (Simulation time: 01 hr 15 min 16 sec)
Heartbeat CPU 0 instructions: 350000000 cycles: 378841444 heartbeat IPC: 0.488 cumulative IPC: 0.4692 (Simulation time: 01 hr 15 min 35 sec)
Heartbeat CPU 1 instructions: 590000003 cycles: 395982470 heartbeat IPC: 0.5256 cumulative IPC: 1.049 (Simulation time: 01 hr 18 min 30 sec)
Heartbeat CPU 0 instructions: 360000000 cycles: 400130923 heartbeat IPC: 0.4697 cumulative IPC: 0.4692 (Simulation time: 01 hr 19 min 11 sec)
Heartbeat CPU 1 instructions: 600000000 cycles: 415158693 heartbeat IPC: 0.5215 cumulative IPC: 1.021 (Simulation time: 01 hr 21 min 45 sec)
Heartbeat CPU 0 instructions: 370000001 cycles: 420183241 heartbeat IPC: 0.4987 cumulative IPC: 0.4709 (Simulation time: 01 hr 22 min 36 sec)
Heartbeat CPU 1 instructions: 610000003 cycles: 431960128 heartbeat IPC: 0.5952 cumulative IPC: 1.002 (Simulation time: 01 hr 24 min 38 sec)
Heartbeat CPU 0 instructions: 380000001 cycles: 439855235 heartbeat IPC: 0.5083 cumulative IPC: 0.4728 (Simulation time: 01 hr 26 min 02 sec)
Heartbeat CPU 1 instructions: 620000000 cycles: 443566639 heartbeat IPC: 0.8616 cumulative IPC: 0.9973 (Simulation time: 01 hr 26 min 41 sec)
Heartbeat CPU 1 instructions: 630000002 cycles: 454931060 heartbeat IPC: 0.8799 cumulative IPC: 0.994 (Simulation time: 01 hr 28 min 42 sec)
Heartbeat CPU 0 instructions: 390000003 cycles: 460053020 heartbeat IPC: 0.4951 cumulative IPC: 0.4739 (Simulation time: 01 hr 29 min 36 sec)
Heartbeat CPU 1 instructions: 640000002 cycles: 474601169 heartbeat IPC: 0.5084 cumulative IPC: 0.971 (Simulation time: 01 hr 32 min 05 sec)
Heartbeat CPU 0 instructions: 400000001 cycles: 484164666 heartbeat IPC: 0.4147 cumulative IPC: 0.4706 (Simulation time: 01 hr 33 min 47 sec)
Simulation finished CPU 0 instructions: 200000000 cycles: 425012638 cumulative IPC: 0.4706 (Simulation time: 01 hr 33 min 47 sec)
Simulation complete CPU 0 instructions: 200000000 cycles: 425012638 cumulative IPC: 0.4706 (Simulation time: 01 hr 33 min 47 sec)
Simulation complete CPU 1 instructions: 412475032 cycles: 425012638 cumulative IPC: 0.9705 (Simulation time: 01 hr 33 min 47 sec)

ChampSim completed all CPUs

=== Simulation ===
CPU 0 runs /public/champsim/dp3_traces/619.lbm_s-4268B.champsimtrace.xzCPU 1 runs /public/champsim/dp3_traces/654.roms_s-842B.champsimtrace.xz
Total Simulation Statistics (not including warmup)

CPU 0 cumulative IPC: 0.4706 instructions: 200000000 cycles: 425012638
CPU 0 Branch Prediction Accuracy: 97.1% MPKI: 0.5195 Average ROB Occupancy at Mispredict: 313.7
Branch type MPKI
BRANCH_DIRECT_JUMP: 0
BRANCH_INDIRECT: 0
BRANCH_CONDITIONAL: 0.519
BRANCH_DIRECT_CALL: 0
BRANCH_INDIRECT_CALL: 0
BRANCH_RETURN: 0


CPU 1 cumulative IPC: 0.9705 instructions: 412475032 cycles: 425012638
CPU 1 Branch Prediction Accuracy: 93.99% MPKI: 8.413 Average ROB Occupancy at Mispredict: 153.5
Branch type MPKI
BRANCH_DIRECT_JUMP: 0.0932
BRANCH_INDIRECT: 0
BRANCH_CONDITIONAL: 4.82
BRANCH_DIRECT_CALL: 1.94e-05
BRANCH_INDIRECT_CALL: 0
BRANCH_RETURN: 3.5

cpu0 INVINCIBLE ACTIVATED: 235612 FREED: 239230
LLC LOAD         IN CARTEL ACCESSES:     815079 BLOCKED ACCESSES:          0
LLC RFO          IN CARTEL ACCESSES:    4485088 BLOCKED ACCESSES:          0
LLC PREFETCH     IN CARTEL ACCESSES:    1008913 BLOCKED ACCESSES:          0
LLC WRITE        IN CARTEL ACCESSES:    4618879 BLOCKED ACCESSES:          0
LLC TRANSLATION  IN CARTEL ACCESSES:        666 BLOCKED ACCESSES:          0
LLC TOTAL       IN CARTEL ACCESS:   10928625 IN CARTEL HIT:    5326397 IN CARTEL MISS:    5602228
LLC LOAD         IN CARTEL ACCESS:     815079 IN CARTEL HIT:     103194 IN CARTEL MISS:     711885
LLC RFO          IN CARTEL ACCESS:    4485088 IN CARTEL HIT:     416818 IN CARTEL MISS:    4068270
LLC PREFETCH     IN CARTEL ACCESS:    1008913 IN CARTEL HIT:     215417 IN CARTEL MISS:     793496
LLC WRITE        IN CARTEL ACCESS:    4618879 IN CARTEL HIT:    4590887 IN CARTEL MISS:      27992
LLC TRANSLATION  IN CARTEL ACCESS:        666 IN CARTEL HIT:         81 IN CARTEL MISS:        585
LLC TOTAL        ACCESS:   17700396 HIT:    8215762 MISS:    9484634
LLC LOAD         ACCESS:    1367784 HIT:     167653 MISS:    1200131
LLC RFO          ACCESS:    7322637 HIT:     496407 MISS:    6826230
LLC PREFETCH     ACCESS:    1687892 HIT:     350032 MISS:    1337860
LLC WRITE        ACCESS:    7320967 HIT:    7201548 MISS:     119419
LLC TRANSLATION  ACCESS:       1116 HIT:        122 MISS:        994
LLC PREFETCH REQUESTED:          0 ISSUED:          0 USEFUL:          0 USELESS:          0
LLC AVERAGE MISS LATENCY: 643.4 cycles
cpu1 INVINCIBLE ACTIVATED: 19707 FREED: 21076
LLC LOAD         IN CARTEL ACCESSES:      29813 BLOCKED ACCESSES:     565872
LLC RFO          IN CARTEL ACCESSES:      50729 BLOCKED ACCESSES:     131574
LLC PREFETCH     IN CARTEL ACCESSES:     140600 BLOCKED ACCESSES:     283045
LLC WRITE        IN CARTEL ACCESSES:      56965 BLOCKED ACCESSES:     126149
LLC TRANSLATION  IN CARTEL ACCESSES:        793 BLOCKED ACCESSES:       4448
LLC TOTAL       IN CARTEL ACCESS:     278900 IN CARTEL HIT:      63585 IN CARTEL MISS:     215315
LLC LOAD         IN CARTEL ACCESS:      29813 IN CARTEL HIT:       2926 IN CARTEL MISS:      26887
LLC RFO          IN CARTEL ACCESS:      50729 IN CARTEL HIT:         53 IN CARTEL MISS:      50676
LLC PREFETCH     IN CARTEL ACCESS:     140600 IN CARTEL HIT:      10263 IN CARTEL MISS:     130337
LLC WRITE        IN CARTEL ACCESS:      56965 IN CARTEL HIT:      50146 IN CARTEL MISS:       6819
LLC TRANSLATION  IN CARTEL ACCESS:        793 IN CARTEL HIT:        197 IN CARTEL MISS:        596
LLC TOTAL        ACCESS:    1883192 HIT:     141995 MISS:    1741197
LLC LOAD         ACCESS:     644218 HIT:       6139 MISS:     638079
LLC RFO          ACCESS:     290932 HIT:         69 MISS:     290863
LLC PREFETCH     ACCESS:     651608 HIT:      18935 MISS:     632673
LLC WRITE        ACCESS:     290115 HIT:     116462 MISS:     173653
LLC TRANSLATION  ACCESS:       6319 HIT:        390 MISS:       5929
LLC PREFETCH REQUESTED:          0 ISSUED:          0 USEFUL:          0 USELESS:          0
LLC AVERAGE MISS LATENCY: 643.4 cycles
cpu0_DTLB TOTAL        ACCESS:   36183209 HIT:   35689860 MISS:     493349
cpu0_DTLB LOAD         ACCESS:   36183209 HIT:   35689860 MISS:     493349
cpu0_DTLB RFO          ACCESS:          0 HIT:          0 MISS:          0
cpu0_DTLB PREFETCH     ACCESS:          0 HIT:          0 MISS:          0
cpu0_DTLB WRITE        ACCESS:          0 HIT:          0 MISS:          0
cpu0_DTLB TRANSLATION  ACCESS:          0 HIT:          0 MISS:          0
cpu0_DTLB PREFETCH REQUESTED:          0 ISSUED:          0 USEFUL:          0 USELESS:          0
cpu0_DTLB AVERAGE MISS LATENCY: 48.64 cycles
cpu0_DTLB TOTAL        ACCESS:          0 HIT:          0 MISS:          0
cpu0_DTLB LOAD         ACCESS:          0 HIT:          0 MISS:          0
cpu0_DTLB RFO          ACCESS:          0 HIT:          0 MISS:          0
cpu0_DTLB PREFETCH     ACCESS:          0 HIT:          0 MISS:          0
cpu0_DTLB WRITE        ACCESS:          0 HIT:          0 MISS:          0
cpu0_DTLB TRANSLATION  ACCESS:          0 HIT:          0 MISS:          0
cpu0_DTLB PREFETCH REQUESTED:          0 ISSUED:          0 USEFUL:          0 USELESS:          0
cpu0_DTLB AVERAGE MISS LATENCY: 48.64 cycles
cpu0_ITLB TOTAL        ACCESS:          0 HIT:          0 MISS:          0
cpu0_ITLB LOAD         ACCESS:          0 HIT:          0 MISS:          0
cpu0_ITLB RFO          ACCESS:          0 HIT:          0 MISS:          0
cpu0_ITLB PREFETCH     ACCESS:          0 HIT:          0 MISS:          0
cpu0_ITLB WRITE        ACCESS:          0 HIT:          0 MISS:          0
cpu0_ITLB TRANSLATION  ACCESS:          0 HIT:          0 MISS:          0
cpu0_ITLB PREFETCH REQUESTED:          0 ISSUED:          0 USEFUL:          0 USELESS:          0
cpu0_ITLB AVERAGE MISS LATENCY: -nan cycles
cpu0_ITLB TOTAL        ACCESS:          0 HIT:          0 MISS:          0
cpu0_ITLB LOAD         ACCESS:          0 HIT:          0 MISS:          0
cpu0_ITLB RFO          ACCESS:          0 HIT:          0 MISS:          0
cpu0_ITLB PREFETCH     ACCESS:          0 HIT:          0 MISS:          0
cpu0_ITLB WRITE        ACCESS:          0 HIT:          0 MISS:          0
cpu0_ITLB TRANSLATION  ACCESS:          0 HIT:          0 MISS:          0
cpu0_ITLB PREFETCH REQUESTED:          0 ISSUED:          0 USEFUL:          0 USELESS:          0
cpu0_ITLB AVERAGE MISS LATENCY: -nan cycles
cpu0_L1D TOTAL        ACCESS:   49374214 HIT:   27984460 MISS:   21389754
cpu0_L1D LOAD         ACCESS:   12186684 HIT:    6242311 MISS:    5944373
cpu0_L1D RFO          ACCESS:          0 HIT:          0 MISS:          0
cpu0_L1D PREFETCH     ACCESS:    1145200 HIT:     123007 MISS:    1022193
cpu0_L1D WRITE        ACCESS:   35894252 HIT:   21618545 MISS:   14275707
cpu0_L1D TRANSLATION  ACCESS:     148078 HIT:        597 MISS:     147481
cpu0_L1D PREFETCH REQUESTED:    5673044 ISSUED:    1145200 USEFUL:      79102 USELESS:          0
cpu0_L1D AVERAGE MISS LATENCY: 240 cycles
cpu0_L1D TOTAL        ACCESS:          0 HIT:          0 MISS:          0
cpu0_L1D LOAD         ACCESS:          0 HIT:          0 MISS:          0
cpu0_L1D RFO          ACCESS:          0 HIT:          0 MISS:          0
cpu0_L1D PREFETCH     ACCESS:          0 HIT:          0 MISS:          0
cpu0_L1D WRITE        ACCESS:          0 HIT:          0 MISS:          0
cpu0_L1D TRANSLATION  ACCESS:          0 HIT:          0 MISS:          0
cpu0_L1D PREFETCH REQUESTED:    5673044 ISSUED:    1145200 USEFUL:      79102 USELESS:          0
cpu0_L1D AVERAGE MISS LATENCY: 240 cycles
cpu0_L1I TOTAL        ACCESS:          0 HIT:          0 MISS:          0
cpu0_L1I LOAD         ACCESS:          0 HIT:          0 MISS:          0
cpu0_L1I RFO          ACCESS:          0 HIT:          0 MISS:          0
cpu0_L1I PREFETCH     ACCESS:          0 HIT:          0 MISS:          0
cpu0_L1I WRITE        ACCESS:          0 HIT:          0 MISS:          0
cpu0_L1I TRANSLATION  ACCESS:          0 HIT:          0 MISS:          0
cpu0_L1I PREFETCH REQUESTED:          0 ISSUED:          0 USEFUL:          0 USELESS:          0
cpu0_L1I AVERAGE MISS LATENCY: -nan cycles
cpu0_L1I TOTAL        ACCESS:          0 HIT:          0 MISS:          0
cpu0_L1I LOAD         ACCESS:          0 HIT:          0 MISS:          0
cpu0_L1I RFO          ACCESS:          0 HIT:          0 MISS:          0
cpu0_L1I PREFETCH     ACCESS:          0 HIT:          0 MISS:          0
cpu0_L1I WRITE        ACCESS:          0 HIT:          0 MISS:          0
cpu0_L1I TRANSLATION  ACCESS:          0 HIT:          0 MISS:          0
cpu0_L1I PREFETCH REQUESTED:          0 ISSUED:          0 USEFUL:          0 USELESS:          0
cpu0_L1I AVERAGE MISS LATENCY: -nan cycles
cpu0_L2C TOTAL        ACCESS:   32260049 HIT:   21437628 MISS:   10822421
cpu0_L2C LOAD         ACCESS:    2287326 HIT:     866991 MISS:    1420335
cpu0_L2C RFO          ACCESS:   13366034 HIT:    6043395 MISS:    7322639
cpu0_L2C PREFETCH     ACCESS:    3092850 HIT:    1014828 MISS:    2078022
cpu0_L2C WRITE        ACCESS:   13366358 HIT:   13366049 MISS:        309
cpu0_L2C TRANSLATION  ACCESS:     147481 HIT:     146365 MISS:       1116
cpu0_L2C PREFETCH REQUESTED:    2151046 ISSUED:    2151001 USEFUL:     577728 USELESS:       2153
cpu0_L2C AVERAGE MISS LATENCY: 554.7 cycles
cpu0_L2C TOTAL        ACCESS:          0 HIT:          0 MISS:          0
cpu0_L2C LOAD         ACCESS:          0 HIT:          0 MISS:          0
cpu0_L2C RFO          ACCESS:          0 HIT:          0 MISS:          0
cpu0_L2C PREFETCH     ACCESS:          0 HIT:          0 MISS:          0
cpu0_L2C WRITE        ACCESS:          0 HIT:          0 MISS:          0
cpu0_L2C TRANSLATION  ACCESS:          0 HIT:          0 MISS:          0
cpu0_L2C PREFETCH REQUESTED:    2151046 ISSUED:    2151001 USEFUL:     577728 USELESS:       2153
cpu0_L2C AVERAGE MISS LATENCY: 554.7 cycles
cpu0_STLB TOTAL        ACCESS:     272629 HIT:     124697 MISS:     147932
cpu0_STLB LOAD         ACCESS:     272629 HIT:     124697 MISS:     147932
cpu0_STLB RFO          ACCESS:          0 HIT:          0 MISS:          0
cpu0_STLB PREFETCH     ACCESS:          0 HIT:          0 MISS:          0
cpu0_STLB WRITE        ACCESS:          0 HIT:          0 MISS:          0
cpu0_STLB TRANSLATION  ACCESS:          0 HIT:          0 MISS:          0
cpu0_STLB PREFETCH REQUESTED:          0 ISSUED:          0 USEFUL:          0 USELESS:          0
cpu0_STLB AVERAGE MISS LATENCY: 232.2 cycles
cpu0_STLB TOTAL        ACCESS:          0 HIT:          0 MISS:          0
cpu0_STLB LOAD         ACCESS:          0 HIT:          0 MISS:          0
cpu0_STLB RFO          ACCESS:          0 HIT:          0 MISS:          0
cpu0_STLB PREFETCH     ACCESS:          0 HIT:          0 MISS:          0
cpu0_STLB WRITE        ACCESS:          0 HIT:          0 MISS:          0
cpu0_STLB TRANSLATION  ACCESS:          0 HIT:          0 MISS:          0
cpu0_STLB PREFETCH REQUESTED:          0 ISSUED:          0 USEFUL:          0 USELESS:          0
cpu0_STLB AVERAGE MISS LATENCY: 232.2 cycles
cpu1_DTLB TOTAL        ACCESS:          0 HIT:          0 MISS:          0
cpu1_DTLB LOAD         ACCESS:          0 HIT:          0 MISS:          0
cpu1_DTLB RFO          ACCESS:          0 HIT:          0 MISS:          0
cpu1_DTLB PREFETCH     ACCESS:          0 HIT:          0 MISS:          0
cpu1_DTLB WRITE        ACCESS:          0 HIT:          0 MISS:          0
cpu1_DTLB TRANSLATION  ACCESS:          0 HIT:          0 MISS:          0
cpu1_DTLB PREFETCH REQUESTED:          0 ISSUED:          0 USEFUL:          0 USELESS:          0
cpu1_DTLB AVERAGE MISS LATENCY: 58.04 cycles
cpu1_DTLB TOTAL        ACCESS:   58309166 HIT:   58205285 MISS:     103881
cpu1_DTLB LOAD         ACCESS:   58309166 HIT:   58205285 MISS:     103881
cpu1_DTLB RFO          ACCESS:          0 HIT:          0 MISS:          0
cpu1_DTLB PREFETCH     ACCESS:          0 HIT:          0 MISS:          0
cpu1_DTLB WRITE        ACCESS:          0 HIT:          0 MISS:          0
cpu1_DTLB TRANSLATION  ACCESS:          0 HIT:          0 MISS:          0
cpu1_DTLB PREFETCH REQUESTED:          0 ISSUED:          0 USEFUL:          0 USELESS:          0
cpu1_DTLB AVERAGE MISS LATENCY: 58.04 cycles
cpu1_ITLB TOTAL        ACCESS:          0 HIT:          0 MISS:          0
cpu1_ITLB LOAD         ACCESS:          0 HIT:          0 MISS:          0
cpu1_ITLB RFO          ACCESS:          0 HIT:          0 MISS:          0
cpu1_ITLB PREFETCH     ACCESS:          0 HIT:          0 MISS:          0
cpu1_ITLB WRITE        ACCESS:          0 HIT:          0 MISS:          0
cpu1_ITLB TRANSLATION  ACCESS:          0 HIT:          0 MISS:          0
cpu1_ITLB PREFETCH REQUESTED:          0 ISSUED:          0 USEFUL:          0 USELESS:          0
cpu1_ITLB AVERAGE MISS LATENCY: 888 cycles
cpu1_ITLB TOTAL        ACCESS:    2282899 HIT:    2282891 MISS:          8
cpu1_ITLB LOAD         ACCESS:    2282899 HIT:    2282891 MISS:          8
cpu1_ITLB RFO          ACCESS:          0 HIT:          0 MISS:          0
cpu1_ITLB PREFETCH     ACCESS:          0 HIT:          0 MISS:          0
cpu1_ITLB WRITE        ACCESS:          0 HIT:          0 MISS:          0
cpu1_ITLB TRANSLATION  ACCESS:          0 HIT:          0 MISS:          0
cpu1_ITLB PREFETCH REQUESTED:          0 ISSUED:          0 USEFUL:          0 USELESS:          0
cpu1_ITLB AVERAGE MISS LATENCY: 888 cycles
cpu1_L1D TOTAL        ACCESS:          0 HIT:          0 MISS:          0
cpu1_L1D LOAD         ACCESS:          0 HIT:          0 MISS:          0
cpu1_L1D RFO          ACCESS:          0 HIT:          0 MISS:          0
cpu1_L1D PREFETCH     ACCESS:          0 HIT:          0 MISS:          0
cpu1_L1D WRITE        ACCESS:          0 HIT:          0 MISS:          0
cpu1_L1D TRANSLATION  ACCESS:          0 HIT:          0 MISS:          0
cpu1_L1D PREFETCH REQUESTED:     100260 ISSUED:      68450 USEFUL:       1006 USELESS:         44
cpu1_L1D AVERAGE MISS LATENCY: 170.4 cycles
cpu1_L1D TOTAL        ACCESS:   84227683 HIT:   79710040 MISS:    4517643
cpu1_L1D LOAD         ACCESS:   48390691 HIT:   45777815 MISS:    2612876
cpu1_L1D RFO          ACCESS:          0 HIT:          0 MISS:          0
cpu1_L1D PREFETCH     ACCESS:      68450 HIT:      29338 MISS:      39112
cpu1_L1D WRITE        ACCESS:   35754881 HIT:   33895604 MISS:    1859277
cpu1_L1D TRANSLATION  ACCESS:      13661 HIT:       7283 MISS:       6378
cpu1_L1D PREFETCH REQUESTED:     100260 ISSUED:      68450 USEFUL:       1006 USELESS:         44
cpu1_L1D AVERAGE MISS LATENCY: 170.4 cycles
cpu1_L1I TOTAL        ACCESS:          0 HIT:          0 MISS:          0
cpu1_L1I LOAD         ACCESS:          0 HIT:          0 MISS:          0
cpu1_L1I RFO          ACCESS:          0 HIT:          0 MISS:          0
cpu1_L1I PREFETCH     ACCESS:          0 HIT:          0 MISS:          0
cpu1_L1I WRITE        ACCESS:          0 HIT:          0 MISS:          0
cpu1_L1I TRANSLATION  ACCESS:          0 HIT:          0 MISS:          0
cpu1_L1I PREFETCH REQUESTED:          0 ISSUED:          0 USEFUL:          0 USELESS:          0
cpu1_L1I AVERAGE MISS LATENCY: 584.6 cycles
cpu1_L1I TOTAL        ACCESS:    2971832 HIT:    2971689 MISS:        143
cpu1_L1I LOAD         ACCESS:    2971832 HIT:    2971689 MISS:        143
cpu1_L1I RFO          ACCESS:          0 HIT:          0 MISS:          0
cpu1_L1I PREFETCH     ACCESS:          0 HIT:          0 MISS:          0
cpu1_L1I WRITE        ACCESS:          0 HIT:          0 MISS:          0
cpu1_L1I TRANSLATION  ACCESS:          0 HIT:          0 MISS:          0
cpu1_L1I PREFETCH REQUESTED:          0 ISSUED:          0 USEFUL:          0 USELESS:          0
cpu1_L1I AVERAGE MISS LATENCY: 584.6 cycles
cpu1_L2C TOTAL        ACCESS:          0 HIT:          0 MISS:          0
cpu1_L2C LOAD         ACCESS:          0 HIT:          0 MISS:          0
cpu1_L2C RFO          ACCESS:          0 HIT:          0 MISS:          0
cpu1_L2C PREFETCH     ACCESS:          0 HIT:          0 MISS:          0
cpu1_L2C WRITE        ACCESS:          0 HIT:          0 MISS:          0
cpu1_L2C TRANSLATION  ACCESS:          0 HIT:          0 MISS:          0
cpu1_L2C PREFETCH REQUESTED:    1000676 ISSUED:    1000676 USEFUL:     240125 USELESS:       4660
cpu1_L2C AVERAGE MISS LATENCY: 444.5 cycles
cpu1_L2C TOTAL        ACCESS:    2584954 HIT:     357346 MISS:    2227608
cpu1_L2C LOAD         ACCESS:     892997 HIT:      63890 MISS:     829107
cpu1_L2C RFO          ACCESS:     334524 HIT:      43592 MISS:     290932
cpu1_L2C PREFETCH     ACCESS:    1020838 HIT:      46865 MISS:     973973
cpu1_L2C WRITE        ACCESS:     330224 HIT:     202947 MISS:     127277
cpu1_L2C TRANSLATION  ACCESS:       6371 HIT:         52 MISS:       6319
cpu1_L2C PREFETCH REQUESTED:    1000676 ISSUED:    1000676 USEFUL:     240125 USELESS:       4660
cpu1_L2C AVERAGE MISS LATENCY: 444.5 cycles
cpu1_STLB TOTAL        ACCESS:          0 HIT:          0 MISS:          0
cpu1_STLB LOAD         ACCESS:          0 HIT:          0 MISS:          0
cpu1_STLB RFO          ACCESS:          0 HIT:          0 MISS:          0
cpu1_STLB PREFETCH     ACCESS:          0 HIT:          0 MISS:          0
cpu1_STLB WRITE        ACCESS:          0 HIT:          0 MISS:          0
cpu1_STLB TRANSLATION  ACCESS:          0 HIT:          0 MISS:          0
cpu1_STLB PREFETCH REQUESTED:          0 ISSUED:          0 USEFUL:          0 USELESS:          0
cpu1_STLB AVERAGE MISS LATENCY: 678 cycles
cpu1_STLB TOTAL        ACCESS:      15717 HIT:       2083 MISS:      13634
cpu1_STLB LOAD         ACCESS:      15717 HIT:       2083 MISS:      13634
cpu1_STLB RFO          ACCESS:          0 HIT:          0 MISS:          0
cpu1_STLB PREFETCH     ACCESS:          0 HIT:          0 MISS:          0
cpu1_STLB WRITE        ACCESS:          0 HIT:          0 MISS:          0
cpu1_STLB TRANSLATION  ACCESS:          0 HIT:          0 MISS:          0
cpu1_STLB PREFETCH REQUESTED:          0 ISSUED:          0 USEFUL:          0 USELESS:          0
cpu1_STLB AVERAGE MISS LATENCY: 678 cycles

Region of Interest Statistics

CPU 0 cumulative IPC: 0.4706 instructions: 200000000 cycles: 425012638
CPU 0 Branch Prediction Accuracy: 97.1% MPKI: 0.5195 Average ROB Occupancy at Mispredict: 313.7
Branch type MPKI
BRANCH_DIRECT_JUMP: 0
BRANCH_INDIRECT: 0
BRANCH_CONDITIONAL: 0.519
BRANCH_DIRECT_CALL: 0
BRANCH_INDIRECT_CALL: 0
BRANCH_RETURN: 0


CPU 1 cumulative IPC: 2.085 instructions: 200000003 cycles: 95936707
CPU 1 Branch Prediction Accuracy: 97.32% MPKI: 4.451 Average ROB Occupancy at Mispredict: 116.1
Branch type MPKI
BRANCH_DIRECT_JUMP: 0.16
BRANCH_INDIRECT: 0
BRANCH_CONDITIONAL: 3.27
BRANCH_DIRECT_CALL: 0
BRANCH_INDIRECT_CALL: 0
BRANCH_RETURN: 1.02

cpu0 INVINCIBLE ACTIVATED: 235612 FREED: 239230
LLC LOAD         IN CARTEL ACCESSES:     815079 BLOCKED ACCESSES:          0
LLC RFO          IN CARTEL ACCESSES:    4485088 BLOCKED ACCESSES:          0
LLC PREFETCH     IN CARTEL ACCESSES:    1008913 BLOCKED ACCESSES:          0
LLC WRITE        IN CARTEL ACCESSES:    4618879 BLOCKED ACCESSES:          0
LLC TRANSLATION  IN CARTEL ACCESSES:        666 BLOCKED ACCESSES:          0
LLC TOTAL       IN CARTEL ACCESS:   10928625 IN CARTEL HIT:    5326397 IN CARTEL MISS:    5602228
LLC LOAD         IN CARTEL ACCESS:     815079 IN CARTEL HIT:     103194 IN CARTEL MISS:     711885
LLC RFO          IN CARTEL ACCESS:    4485088 IN CARTEL HIT:     416818 IN CARTEL MISS:    4068270
LLC PREFETCH     IN CARTEL ACCESS:    1008913 IN CARTEL HIT:     215417 IN CARTEL MISS:     793496
LLC WRITE        IN CARTEL ACCESS:    4618879 IN CARTEL HIT:    4590887 IN CARTEL MISS:      27992
LLC TRANSLATION  IN CARTEL ACCESS:        666 IN CARTEL HIT:         81 IN CARTEL MISS:        585
LLC TOTAL        ACCESS:   17700396 HIT:    8215762 MISS:    9484634
LLC LOAD         ACCESS:    1367784 HIT:     167653 MISS:    1200131
LLC RFO          ACCESS:    7322637 HIT:     496407 MISS:    6826230
LLC PREFETCH     ACCESS:    1687892 HIT:     350032 MISS:    1337860
LLC WRITE        ACCESS:    7320967 HIT:    7201548 MISS:     119419
LLC TRANSLATION  ACCESS:       1116 HIT:        122 MISS:        994
LLC PREFETCH REQUESTED:          0 ISSUED:          0 USEFUL:          0 USELESS:          0
LLC AVERAGE MISS LATENCY: 643.4 cycles
cpu1 INVINCIBLE ACTIVATED: 781 FREED: 1474
LLC LOAD         IN CARTEL ACCESSES:         30 BLOCKED ACCESSES:      44864
LLC RFO          IN CARTEL ACCESSES:        115 BLOCKED ACCESSES:       5285
LLC PREFETCH     IN CARTEL ACCESSES:        182 BLOCKED ACCESSES:      13413
LLC WRITE        IN CARTEL ACCESSES:        162 BLOCKED ACCESSES:       6646
LLC TRANSLATION  IN CARTEL ACCESSES:          3 BLOCKED ACCESSES:         64
LLC TOTAL       IN CARTEL ACCESS:        492 IN CARTEL HIT:          0 IN CARTEL MISS:        492
LLC LOAD         IN CARTEL ACCESS:         30 IN CARTEL HIT:          0 IN CARTEL MISS:         30
LLC RFO          IN CARTEL ACCESS:        115 IN CARTEL HIT:          0 IN CARTEL MISS:        115
LLC PREFETCH     IN CARTEL ACCESS:        182 IN CARTEL HIT:          0 IN CARTEL MISS:        182
LLC WRITE        IN CARTEL ACCESS:        162 IN CARTEL HIT:          0 IN CARTEL MISS:        162
LLC TRANSLATION  IN CARTEL ACCESS:          3 IN CARTEL HIT:          0 IN CARTEL MISS:          3
LLC TOTAL        ACCESS:      83744 HIT:          1 MISS:      83743
LLC LOAD         ACCESS:      45943 HIT:          0 MISS:      45943
LLC RFO          ACCESS:       8866 HIT:          0 MISS:       8866
LLC PREFETCH     ACCESS:      17880 HIT:          0 MISS:      17880
LLC WRITE        ACCESS:      10963 HIT:          1 MISS:      10962
LLC TRANSLATION  ACCESS:         92 HIT:          0 MISS:         92
LLC PREFETCH REQUESTED:          0 ISSUED:          0 USEFUL:          0 USELESS:          0
LLC AVERAGE MISS LATENCY: 643.4 cycles
cpu0_DTLB TOTAL        ACCESS:   36183209 HIT:   35689860 MISS:     493349
cpu0_DTLB LOAD         ACCESS:   36183209 HIT:   35689860 MISS:     493349
cpu0_DTLB RFO          ACCESS:          0 HIT:          0 MISS:          0
cpu0_DTLB PREFETCH     ACCESS:          0 HIT:          0 MISS:          0
cpu0_DTLB WRITE        ACCESS:          0 HIT:          0 MISS:          0
cpu0_DTLB TRANSLATION  ACCESS:          0 HIT:          0 MISS:          0
cpu0_DTLB PREFETCH REQUESTED:          0 ISSUED:          0 USEFUL:          0 USELESS:          0
cpu0_DTLB AVERAGE MISS LATENCY: 48.64 cycles
cpu0_DTLB TOTAL        ACCESS:          0 HIT:          0 MISS:          0
cpu0_DTLB LOAD         ACCESS:          0 HIT:          0 MISS:          0
cpu0_DTLB RFO          ACCESS:          0 HIT:          0 MISS:          0
cpu0_DTLB PREFETCH     ACCESS:          0 HIT:          0 MISS:          0
cpu0_DTLB WRITE        ACCESS:          0 HIT:          0 MISS:          0
cpu0_DTLB TRANSLATION  ACCESS:          0 HIT:          0 MISS:          0
cpu0_DTLB PREFETCH REQUESTED:          0 ISSUED:          0 USEFUL:          0 USELESS:          0
cpu0_DTLB AVERAGE MISS LATENCY: 48.64 cycles
cpu0_ITLB TOTAL        ACCESS:          0 HIT:          0 MISS:          0
cpu0_ITLB LOAD         ACCESS:          0 HIT:          0 MISS:          0
cpu0_ITLB RFO          ACCESS:          0 HIT:          0 MISS:          0
cpu0_ITLB PREFETCH     ACCESS:          0 HIT:          0 MISS:          0
cpu0_ITLB WRITE        ACCESS:          0 HIT:          0 MISS:          0
cpu0_ITLB TRANSLATION  ACCESS:          0 HIT:          0 MISS:          0
cpu0_ITLB PREFETCH REQUESTED:          0 ISSUED:          0 USEFUL:          0 USELESS:          0
cpu0_ITLB AVERAGE MISS LATENCY: -nan cycles
cpu0_ITLB TOTAL        ACCESS:          0 HIT:          0 MISS:          0
cpu0_ITLB LOAD         ACCESS:          0 HIT:          0 MISS:          0
cpu0_ITLB RFO          ACCESS:          0 HIT:          0 MISS:          0
cpu0_ITLB PREFETCH     ACCESS:          0 HIT:          0 MISS:          0
cpu0_ITLB WRITE        ACCESS:          0 HIT:          0 MISS:          0
cpu0_ITLB TRANSLATION  ACCESS:          0 HIT:          0 MISS:          0
cpu0_ITLB PREFETCH REQUESTED:          0 ISSUED:          0 USEFUL:          0 USELESS:          0
cpu0_ITLB AVERAGE MISS LATENCY: -nan cycles
cpu0_L1D TOTAL        ACCESS:   49374214 HIT:   27984460 MISS:   21389754
cpu0_L1D LOAD         ACCESS:   12186684 HIT:    6242311 MISS:    5944373
cpu0_L1D RFO          ACCESS:          0 HIT:          0 MISS:          0
cpu0_L1D PREFETCH     ACCESS:    1145200 HIT:     123007 MISS:    1022193
cpu0_L1D WRITE        ACCESS:   35894252 HIT:   21618545 MISS:   14275707
cpu0_L1D TRANSLATION  ACCESS:     148078 HIT:        597 MISS:     147481
cpu0_L1D PREFETCH REQUESTED:    5673044 ISSUED:    1145200 USEFUL:      79102 USELESS:          0
cpu0_L1D AVERAGE MISS LATENCY: 240 cycles
cpu0_L1D TOTAL        ACCESS:          0 HIT:          0 MISS:          0
cpu0_L1D LOAD         ACCESS:          0 HIT:          0 MISS:          0
cpu0_L1D RFO          ACCESS:          0 HIT:          0 MISS:          0
cpu0_L1D PREFETCH     ACCESS:          0 HIT:          0 MISS:          0
cpu0_L1D WRITE        ACCESS:          0 HIT:          0 MISS:          0
cpu0_L1D TRANSLATION  ACCESS:          0 HIT:          0 MISS:          0
cpu0_L1D PREFETCH REQUESTED:    5673044 ISSUED:    1145200 USEFUL:      79102 USELESS:          0
cpu0_L1D AVERAGE MISS LATENCY: 240 cycles
cpu0_L1I TOTAL        ACCESS:          0 HIT:          0 MISS:          0
cpu0_L1I LOAD         ACCESS:          0 HIT:          0 MISS:          0
cpu0_L1I RFO          ACCESS:          0 HIT:          0 MISS:          0
cpu0_L1I PREFETCH     ACCESS:          0 HIT:          0 MISS:          0
cpu0_L1I WRITE        ACCESS:          0 HIT:          0 MISS:          0
cpu0_L1I TRANSLATION  ACCESS:          0 HIT:          0 MISS:          0
cpu0_L1I PREFETCH REQUESTED:          0 ISSUED:          0 USEFUL:          0 USELESS:          0
cpu0_L1I AVERAGE MISS LATENCY: -nan cycles
cpu0_L1I TOTAL        ACCESS:          0 HIT:          0 MISS:          0
cpu0_L1I LOAD         ACCESS:          0 HIT:          0 MISS:          0
cpu0_L1I RFO          ACCESS:          0 HIT:          0 MISS:          0
cpu0_L1I PREFETCH     ACCESS:          0 HIT:          0 MISS:          0
cpu0_L1I WRITE        ACCESS:          0 HIT:          0 MISS:          0
cpu0_L1I TRANSLATION  ACCESS:          0 HIT:          0 MISS:          0
cpu0_L1I PREFETCH REQUESTED:          0 ISSUED:          0 USEFUL:          0 USELESS:          0
cpu0_L1I AVERAGE MISS LATENCY: -nan cycles
cpu0_L2C TOTAL        ACCESS:   32260049 HIT:   21437628 MISS:   10822421
cpu0_L2C LOAD         ACCESS:    2287326 HIT:     866991 MISS:    1420335
cpu0_L2C RFO          ACCESS:   13366034 HIT:    6043395 MISS:    7322639
cpu0_L2C PREFETCH     ACCESS:    3092850 HIT:    1014828 MISS:    2078022
cpu0_L2C WRITE        ACCESS:   13366358 HIT:   13366049 MISS:        309
cpu0_L2C TRANSLATION  ACCESS:     147481 HIT:     146365 MISS:       1116
cpu0_L2C PREFETCH REQUESTED:    2151046 ISSUED:    2151001 USEFUL:     577728 USELESS:       2153
cpu0_L2C AVERAGE MISS LATENCY: 554.7 cycles
cpu0_L2C TOTAL        ACCESS:          0 HIT:          0 MISS:          0
cpu0_L2C LOAD         ACCESS:          0 HIT:          0 MISS:          0
cpu0_L2C RFO          ACCESS:          0 HIT:          0 MISS:          0
cpu0_L2C PREFETCH     ACCESS:          0 HIT:          0 MISS:          0
cpu0_L2C WRITE        ACCESS:          0 HIT:          0 MISS:          0
cpu0_L2C TRANSLATION  ACCESS:          0 HIT:          0 MISS:          0
cpu0_L2C PREFETCH REQUESTED:    2151046 ISSUED:    2151001 USEFUL:     577728 USELESS:       2153
cpu0_L2C AVERAGE MISS LATENCY: 554.7 cycles
cpu0_STLB TOTAL        ACCESS:     272629 HIT:     124697 MISS:     147932
cpu0_STLB LOAD         ACCESS:     272629 HIT:     124697 MISS:     147932
cpu0_STLB RFO          ACCESS:          0 HIT:          0 MISS:          0
cpu0_STLB PREFETCH     ACCESS:          0 HIT:          0 MISS:          0
cpu0_STLB WRITE        ACCESS:          0 HIT:          0 MISS:          0
cpu0_STLB TRANSLATION  ACCESS:          0 HIT:          0 MISS:          0
cpu0_STLB PREFETCH REQUESTED:          0 ISSUED:          0 USEFUL:          0 USELESS:          0
cpu0_STLB AVERAGE MISS LATENCY: 232.2 cycles
cpu0_STLB TOTAL        ACCESS:          0 HIT:          0 MISS:          0
cpu0_STLB LOAD         ACCESS:          0 HIT:          0 MISS:          0
cpu0_STLB RFO          ACCESS:          0 HIT:          0 MISS:          0
cpu0_STLB PREFETCH     ACCESS:          0 HIT:          0 MISS:          0
cpu0_STLB WRITE        ACCESS:          0 HIT:          0 MISS:          0
cpu0_STLB TRANSLATION  ACCESS:          0 HIT:          0 MISS:          0
cpu0_STLB PREFETCH REQUESTED:          0 ISSUED:          0 USEFUL:          0 USELESS:          0
cpu0_STLB AVERAGE MISS LATENCY: 232.2 cycles
cpu1_DTLB TOTAL        ACCESS:          0 HIT:          0 MISS:          0
cpu1_DTLB LOAD         ACCESS:          0 HIT:          0 MISS:          0
cpu1_DTLB RFO          ACCESS:          0 HIT:          0 MISS:          0
cpu1_DTLB PREFETCH     ACCESS:          0 HIT:          0 MISS:          0
cpu1_DTLB WRITE        ACCESS:          0 HIT:          0 MISS:          0
cpu1_DTLB TRANSLATION  ACCESS:          0 HIT:          0 MISS:          0
cpu1_DTLB PREFETCH REQUESTED:          0 ISSUED:          0 USEFUL:          0 USELESS:          0
cpu1_DTLB AVERAGE MISS LATENCY: 58.04 cycles
cpu1_DTLB TOTAL        ACCESS:   23574858 HIT:   23571878 MISS:       2980
cpu1_DTLB LOAD         ACCESS:   23574858 HIT:   23571878 MISS:       2980
cpu1_DTLB RFO          ACCESS:          0 HIT:          0 MISS:          0
cpu1_DTLB PREFETCH     ACCESS:          0 HIT:          0 MISS:          0
cpu1_DTLB WRITE        ACCESS:          0 HIT:          0 MISS:          0
cpu1_DTLB TRANSLATION  ACCESS:          0 HIT:          0 MISS:          0
cpu1_DTLB PREFETCH REQUESTED:          0 ISSUED:          0 USEFUL:          0 USELESS:          0
cpu1_DTLB AVERAGE MISS LATENCY: 58.04 cycles
cpu1_ITLB TOTAL        ACCESS:          0 HIT:          0 MISS:          0
cpu1_ITLB LOAD         ACCESS:          0 HIT:          0 MISS:          0
cpu1_ITLB RFO          ACCESS:          0 HIT:          0 MISS:          0
cpu1_ITLB PREFETCH     ACCESS:          0 HIT:          0 MISS:          0
cpu1_ITLB WRITE        ACCESS:          0 HIT:          0 MISS:          0
cpu1_ITLB TRANSLATION  ACCESS:          0 HIT:          0 MISS:          0
cpu1_ITLB PREFETCH REQUESTED:          0 ISSUED:          0 USEFUL:          0 USELESS:          0
cpu1_ITLB AVERAGE MISS LATENCY: 888 cycles
cpu1_ITLB TOTAL        ACCESS:    1896852 HIT:    1896852 MISS:          0
cpu1_ITLB LOAD         ACCESS:    1896852 HIT:    1896852 MISS:          0
cpu1_ITLB RFO          ACCESS:          0 HIT:          0 MISS:          0
cpu1_ITLB PREFETCH     ACCESS:          0 HIT:          0 MISS:          0
cpu1_ITLB WRITE        ACCESS:          0 HIT:          0 MISS:          0
cpu1_ITLB TRANSLATION  ACCESS:          0 HIT:          0 MISS:          0
cpu1_ITLB PREFETCH REQUESTED:          0 ISSUED:          0 USEFUL:          0 USELESS:          0
cpu1_ITLB AVERAGE MISS LATENCY: 888 cycles
cpu1_L1D TOTAL        ACCESS:          0 HIT:          0 MISS:          0
cpu1_L1D LOAD         ACCESS:          0 HIT:          0 MISS:          0
cpu1_L1D RFO          ACCESS:          0 HIT:          0 MISS:          0
cpu1_L1D PREFETCH     ACCESS:          0 HIT:          0 MISS:          0
cpu1_L1D WRITE        ACCESS:          0 HIT:          0 MISS:          0
cpu1_L1D TRANSLATION  ACCESS:          0 HIT:          0 MISS:          0
cpu1_L1D PREFETCH REQUESTED:     100260 ISSUED:      68450 USEFUL:       1006 USELESS:         44
cpu1_L1D AVERAGE MISS LATENCY: 170.4 cycles
cpu1_L1D TOTAL        ACCESS:   36334175 HIT:   36226148 MISS:     108027
cpu1_L1D LOAD         ACCESS:   21609660 HIT:   21530197 MISS:      79463
cpu1_L1D RFO          ACCESS:          0 HIT:          0 MISS:          0
cpu1_L1D PREFETCH     ACCESS:      32079 HIT:      27600 MISS:       4479
cpu1_L1D WRITE        ACCESS:   14691969 HIT:   14667977 MISS:      23992
cpu1_L1D TRANSLATION  ACCESS:        467 HIT:        374 MISS:         93
cpu1_L1D PREFETCH REQUESTED:     100260 ISSUED:      68450 USEFUL:       1006 USELESS:         44
cpu1_L1D AVERAGE MISS LATENCY: 170.4 cycles
cpu1_L1I TOTAL        ACCESS:          0 HIT:          0 MISS:          0
cpu1_L1I LOAD         ACCESS:          0 HIT:          0 MISS:          0
cpu1_L1I RFO          ACCESS:          0 HIT:          0 MISS:          0
cpu1_L1I PREFETCH     ACCESS:          0 HIT:          0 MISS:          0
cpu1_L1I WRITE        ACCESS:          0 HIT:          0 MISS:          0
cpu1_L1I TRANSLATION  ACCESS:          0 HIT:          0 MISS:          0
cpu1_L1I PREFETCH REQUESTED:          0 ISSUED:          0 USEFUL:          0 USELESS:          0
cpu1_L1I AVERAGE MISS LATENCY: 584.6 cycles
cpu1_L1I TOTAL        ACCESS:    2471452 HIT:    2471452 MISS:          0
cpu1_L1I LOAD         ACCESS:    2471452 HIT:    2471452 MISS:          0
cpu1_L1I RFO          ACCESS:          0 HIT:          0 MISS:          0
cpu1_L1I PREFETCH     ACCESS:          0 HIT:          0 MISS:          0
cpu1_L1I WRITE        ACCESS:          0 HIT:          0 MISS:          0
cpu1_L1I TRANSLATION  ACCESS:          0 HIT:          0 MISS:          0
cpu1_L1I PREFETCH REQUESTED:          0 ISSUED:          0 USEFUL:          0 USELESS:          0
cpu1_L1I AVERAGE MISS LATENCY: 584.6 cycles
cpu1_L2C TOTAL        ACCESS:          0 HIT:          0 MISS:          0
cpu1_L2C LOAD         ACCESS:          0 HIT:          0 MISS:          0
cpu1_L2C RFO          ACCESS:          0 HIT:          0 MISS:          0
cpu1_L2C PREFETCH     ACCESS:          0 HIT:          0 MISS:          0
cpu1_L2C WRITE        ACCESS:          0 HIT:          0 MISS:          0
cpu1_L2C TRANSLATION  ACCESS:          0 HIT:          0 MISS:          0
cpu1_L2C PREFETCH REQUESTED:    1000676 ISSUED:    1000676 USEFUL:     240125 USELESS:       4660
cpu1_L2C AVERAGE MISS LATENCY: 444.5 cycles
cpu1_L2C TOTAL        ACCESS:     104813 HIT:      20528 MISS:      84285
cpu1_L2C LOAD         ACCESS:      51613 HIT:       3866 MISS:      47747
cpu1_L2C RFO          ACCESS:      14316 HIT:       5450 MISS:       8866
cpu1_L2C PREFETCH     ACCESS:      24325 HIT:       2030 MISS:      22295
cpu1_L2C WRITE        ACCESS:      14466 HIT:       9181 MISS:       5285
cpu1_L2C TRANSLATION  ACCESS:         93 HIT:          1 MISS:         92
cpu1_L2C PREFETCH REQUESTED:    1000676 ISSUED:    1000676 USEFUL:     240125 USELESS:       4660
cpu1_L2C AVERAGE MISS LATENCY: 444.5 cycles
cpu1_STLB TOTAL        ACCESS:          0 HIT:          0 MISS:          0
cpu1_STLB LOAD         ACCESS:          0 HIT:          0 MISS:          0
cpu1_STLB RFO          ACCESS:          0 HIT:          0 MISS:          0
cpu1_STLB PREFETCH     ACCESS:          0 HIT:          0 MISS:          0
cpu1_STLB WRITE        ACCESS:          0 HIT:          0 MISS:          0
cpu1_STLB TRANSLATION  ACCESS:          0 HIT:          0 MISS:          0
cpu1_STLB PREFETCH REQUESTED:          0 ISSUED:          0 USEFUL:          0 USELESS:          0
cpu1_STLB AVERAGE MISS LATENCY: 678 cycles
cpu1_STLB TOTAL        ACCESS:        490 HIT:         24 MISS:        466
cpu1_STLB LOAD         ACCESS:        490 HIT:         24 MISS:        466
cpu1_STLB RFO          ACCESS:          0 HIT:          0 MISS:          0
cpu1_STLB PREFETCH     ACCESS:          0 HIT:          0 MISS:          0
cpu1_STLB WRITE        ACCESS:          0 HIT:          0 MISS:          0
cpu1_STLB TRANSLATION  ACCESS:          0 HIT:          0 MISS:          0
cpu1_STLB PREFETCH REQUESTED:          0 ISSUED:          0 USEFUL:          0 USELESS:          0
cpu1_STLB AVERAGE MISS LATENCY: 678 cycles

DRAM Statistics

Channel 0 RQ ROW_BUFFER_HIT:     610623
  ROW_BUFFER_MISS:    4640391
 AVG DBUS CONGESTED CYCLE: 3.979

Channel 0 WQ ROW_BUFFER_HIT:      43693
  ROW_BUFFER_MISS:    1863966
  FULL:          0

Channel 1 RQ ROW_BUFFER_HIT:     606290
  ROW_BUFFER_MISS:    4617361
 AVG DBUS CONGESTED CYCLE: 3.978

Channel 1 WQ ROW_BUFFER_HIT:      44641
  ROW_BUFFER_MISS:    1863661
  FULL:          0
