WARNING: physical memory size is smaller than virtual memory size.

*** ChampSim Multicore Out-of-Order Simulator ***
Warmup Instructions: 200000000
Simulation Instructions: 200000000
Number of CPUs: 8
Page size: 4096

Off-chip DRAM Size: 8 GiB Channels: 2 Width: 64-bit Data Race: 3200 MT/s
Heartbeat CPU 0 instructions: 10000002 cycles: 2500086 heartbeat IPC: 4 cumulative IPC: 4 (Simulation time: 00 hr 04 min 11 sec)
Heartbeat CPU 1 instructions: 10000001 cycles: 2500314 heartbeat IPC: 3.999 cumulative IPC: 3.999 (Simulation time: 00 hr 04 min 11 sec)
Heartbeat CPU 3 instructions: 10000003 cycles: 2500890 heartbeat IPC: 3.999 cumulative IPC: 3.999 (Simulation time: 00 hr 04 min 11 sec)
Heartbeat CPU 4 instructions: 10000001 cycles: 2501558 heartbeat IPC: 3.998 cumulative IPC: 3.998 (Simulation time: 00 hr 04 min 11 sec)
Heartbeat CPU 5 instructions: 10000003 cycles: 2502292 heartbeat IPC: 3.996 cumulative IPC: 3.996 (Simulation time: 00 hr 04 min 11 sec)
Heartbeat CPU 6 instructions: 10000000 cycles: 2502332 heartbeat IPC: 3.996 cumulative IPC: 3.996 (Simulation time: 00 hr 04 min 11 sec)
Heartbeat CPU 7 instructions: 10000001 cycles: 2502477 heartbeat IPC: 3.996 cumulative IPC: 3.996 (Simulation time: 00 hr 04 min 11 sec)
Heartbeat CPU 2 instructions: 10000001 cycles: 2731342 heartbeat IPC: 3.661 cumulative IPC: 3.661 (Simulation time: 00 hr 04 min 34 sec)
Heartbeat CPU 0 instructions: 20000002 cycles: 5000086 heartbeat IPC: 4 cumulative IPC: 4 (Simulation time: 00 hr 08 min 25 sec)
Heartbeat CPU 1 instructions: 20000001 cycles: 5000314 heartbeat IPC: 4 cumulative IPC: 4 (Simulation time: 00 hr 08 min 25 sec)
Heartbeat CPU 3 instructions: 20000003 cycles: 5000890 heartbeat IPC: 4 cumulative IPC: 3.999 (Simulation time: 00 hr 08 min 25 sec)
Heartbeat CPU 4 instructions: 20000001 cycles: 5001558 heartbeat IPC: 4 cumulative IPC: 3.999 (Simulation time: 00 hr 08 min 25 sec)
Heartbeat CPU 6 instructions: 20000000 cycles: 5002332 heartbeat IPC: 4 cumulative IPC: 3.998 (Simulation time: 00 hr 08 min 25 sec)
Heartbeat CPU 5 instructions: 20000003 cycles: 5002461 heartbeat IPC: 4 cumulative IPC: 3.998 (Simulation time: 00 hr 08 min 25 sec)
Heartbeat CPU 7 instructions: 20000001 cycles: 5002477 heartbeat IPC: 4 cumulative IPC: 3.998 (Simulation time: 00 hr 08 min 25 sec)
Heartbeat CPU 2 instructions: 20000001 cycles: 5461522 heartbeat IPC: 3.663 cumulative IPC: 3.662 (Simulation time: 00 hr 09 min 11 sec)
Heartbeat CPU 0 instructions: 30000002 cycles: 7500086 heartbeat IPC: 4 cumulative IPC: 4 (Simulation time: 00 hr 12 min 38 sec)
Heartbeat CPU 1 instructions: 30000001 cycles: 7500314 heartbeat IPC: 4 cumulative IPC: 4 (Simulation time: 00 hr 12 min 38 sec)
Heartbeat CPU 3 instructions: 30000003 cycles: 7500890 heartbeat IPC: 4 cumulative IPC: 4 (Simulation time: 00 hr 12 min 38 sec)
Heartbeat CPU 4 instructions: 30000001 cycles: 7501558 heartbeat IPC: 4 cumulative IPC: 3.999 (Simulation time: 00 hr 12 min 38 sec)
Heartbeat CPU 6 instructions: 30000000 cycles: 7502332 heartbeat IPC: 4 cumulative IPC: 3.999 (Simulation time: 00 hr 12 min 38 sec)
Heartbeat CPU 7 instructions: 30000001 cycles: 7502477 heartbeat IPC: 4 cumulative IPC: 3.999 (Simulation time: 00 hr 12 min 38 sec)
Heartbeat CPU 5 instructions: 30000001 cycles: 7502670 heartbeat IPC: 4 cumulative IPC: 3.999 (Simulation time: 00 hr 12 min 38 sec)
Heartbeat CPU 2 instructions: 30000001 cycles: 8192559 heartbeat IPC: 3.662 cumulative IPC: 3.662 (Simulation time: 00 hr 13 min 48 sec)
Heartbeat CPU 0 instructions: 40000002 cycles: 10000086 heartbeat IPC: 4 cumulative IPC: 4 (Simulation time: 00 hr 16 min 51 sec)
Heartbeat CPU 1 instructions: 40000001 cycles: 10000314 heartbeat IPC: 4 cumulative IPC: 4 (Simulation time: 00 hr 16 min 51 sec)
Heartbeat CPU 3 instructions: 40000003 cycles: 10000890 heartbeat IPC: 4 cumulative IPC: 4 (Simulation time: 00 hr 16 min 51 sec)
Heartbeat CPU 4 instructions: 40000001 cycles: 10001558 heartbeat IPC: 4 cumulative IPC: 3.999 (Simulation time: 00 hr 16 min 51 sec)
Heartbeat CPU 6 instructions: 40000000 cycles: 10002332 heartbeat IPC: 4 cumulative IPC: 3.999 (Simulation time: 00 hr 16 min 51 sec)
Heartbeat CPU 7 instructions: 40000001 cycles: 10002477 heartbeat IPC: 4 cumulative IPC: 3.999 (Simulation time: 00 hr 16 min 51 sec)
Heartbeat CPU 5 instructions: 40000001 cycles: 10002871 heartbeat IPC: 4 cumulative IPC: 3.999 (Simulation time: 00 hr 16 min 51 sec)
Heartbeat CPU 2 instructions: 40000000 cycles: 10923645 heartbeat IPC: 3.662 cumulative IPC: 3.662 (Simulation time: 00 hr 18 min 24 sec)
Heartbeat CPU 0 instructions: 50000002 cycles: 12500086 heartbeat IPC: 4 cumulative IPC: 4 (Simulation time: 00 hr 21 min 03 sec)
Heartbeat CPU 1 instructions: 50000001 cycles: 12500314 heartbeat IPC: 4 cumulative IPC: 4 (Simulation time: 00 hr 21 min 03 sec)
Heartbeat CPU 3 instructions: 50000003 cycles: 12500890 heartbeat IPC: 4 cumulative IPC: 4 (Simulation time: 00 hr 21 min 03 sec)
Heartbeat CPU 4 instructions: 50000001 cycles: 12501558 heartbeat IPC: 4 cumulative IPC: 4 (Simulation time: 00 hr 21 min 03 sec)
Heartbeat CPU 6 instructions: 50000001 cycles: 12502395 heartbeat IPC: 4 cumulative IPC: 3.999 (Simulation time: 00 hr 21 min 03 sec)
Heartbeat CPU 7 instructions: 50000001 cycles: 12502477 heartbeat IPC: 4 cumulative IPC: 3.999 (Simulation time: 00 hr 21 min 03 sec)
Heartbeat CPU 5 instructions: 50000002 cycles: 12503075 heartbeat IPC: 4 cumulative IPC: 3.999 (Simulation time: 00 hr 21 min 03 sec)
Heartbeat CPU 2 instructions: 50000000 cycles: 13654860 heartbeat IPC: 3.661 cumulative IPC: 3.662 (Simulation time: 00 hr 22 min 59 sec)
Heartbeat CPU 0 instructions: 60000002 cycles: 15000086 heartbeat IPC: 4 cumulative IPC: 4 (Simulation time: 00 hr 25 min 16 sec)
Heartbeat CPU 1 instructions: 60000001 cycles: 15000314 heartbeat IPC: 4 cumulative IPC: 4 (Simulation time: 00 hr 25 min 16 sec)
Heartbeat CPU 3 instructions: 60000002 cycles: 15001471 heartbeat IPC: 3.999 cumulative IPC: 4 (Simulation time: 00 hr 25 min 16 sec)
Heartbeat CPU 4 instructions: 60000001 cycles: 15002513 heartbeat IPC: 3.998 cumulative IPC: 3.999 (Simulation time: 00 hr 25 min 16 sec)
Heartbeat CPU 6 instructions: 60000002 cycles: 15002517 heartbeat IPC: 4 cumulative IPC: 3.999 (Simulation time: 00 hr 25 min 16 sec)
Heartbeat CPU 5 instructions: 60000002 cycles: 15003256 heartbeat IPC: 4 cumulative IPC: 3.999 (Simulation time: 00 hr 25 min 16 sec)
Heartbeat CPU 7 instructions: 60000000 cycles: 15003373 heartbeat IPC: 3.999 cumulative IPC: 3.999 (Simulation time: 00 hr 25 min 16 sec)
Heartbeat CPU 2 instructions: 60000002 cycles: 16240267 heartbeat IPC: 3.868 cumulative IPC: 3.695 (Simulation time: 00 hr 27 min 21 sec)
Heartbeat CPU 0 instructions: 70000002 cycles: 17500086 heartbeat IPC: 4 cumulative IPC: 4 (Simulation time: 00 hr 29 min 27 sec)
Heartbeat CPU 1 instructions: 70000001 cycles: 17500314 heartbeat IPC: 4 cumulative IPC: 4 (Simulation time: 00 hr 29 min 27 sec)
Heartbeat CPU 3 instructions: 70000002 cycles: 17501471 heartbeat IPC: 4 cumulative IPC: 4 (Simulation time: 00 hr 29 min 27 sec)
Heartbeat CPU 6 instructions: 70000002 cycles: 17502517 heartbeat IPC: 4 cumulative IPC: 3.999 (Simulation time: 00 hr 29 min 27 sec)
Heartbeat CPU 7 instructions: 70000000 cycles: 17503373 heartbeat IPC: 4 cumulative IPC: 3.999 (Simulation time: 00 hr 29 min 27 sec)
Heartbeat CPU 4 instructions: 70000003 cycles: 17503436 heartbeat IPC: 3.999 cumulative IPC: 3.999 (Simulation time: 00 hr 29 min 27 sec)
Heartbeat CPU 5 instructions: 70000000 cycles: 17503660 heartbeat IPC: 3.999 cumulative IPC: 3.999 (Simulation time: 00 hr 29 min 28 sec)
Heartbeat CPU 2 instructions: 70000002 cycles: 18792122 heartbeat IPC: 3.919 cumulative IPC: 3.725 (Simulation time: 00 hr 31 min 37 sec)
Heartbeat CPU 0 instructions: 80000002 cycles: 20000086 heartbeat IPC: 4 cumulative IPC: 4 (Simulation time: 00 hr 33 min 38 sec)
Heartbeat CPU 1 instructions: 80000001 cycles: 20000314 heartbeat IPC: 4 cumulative IPC: 4 (Simulation time: 00 hr 33 min 38 sec)
Heartbeat CPU 3 instructions: 80000002 cycles: 20001471 heartbeat IPC: 4 cumulative IPC: 4 (Simulation time: 00 hr 33 min 38 sec)
Heartbeat CPU 6 instructions: 80000002 cycles: 20002517 heartbeat IPC: 4 cumulative IPC: 3.999 (Simulation time: 00 hr 33 min 38 sec)
Heartbeat CPU 7 instructions: 80000000 cycles: 20003373 heartbeat IPC: 4 cumulative IPC: 3.999 (Simulation time: 00 hr 33 min 38 sec)
Heartbeat CPU 4 instructions: 80000003 cycles: 20003436 heartbeat IPC: 4 cumulative IPC: 3.999 (Simulation time: 00 hr 33 min 38 sec)
Heartbeat CPU 5 instructions: 80000000 cycles: 20003843 heartbeat IPC: 4 cumulative IPC: 3.999 (Simulation time: 00 hr 33 min 38 sec)
Heartbeat CPU 2 instructions: 80000000 cycles: 21343658 heartbeat IPC: 3.919 cumulative IPC: 3.748 (Simulation time: 00 hr 35 min 52 sec)
Heartbeat CPU 0 instructions: 90000002 cycles: 22500086 heartbeat IPC: 4 cumulative IPC: 4 (Simulation time: 00 hr 37 min 48 sec)
Heartbeat CPU 1 instructions: 90000001 cycles: 22500314 heartbeat IPC: 4 cumulative IPC: 4 (Simulation time: 00 hr 37 min 48 sec)
Heartbeat CPU 3 instructions: 90000002 cycles: 22501471 heartbeat IPC: 4 cumulative IPC: 4 (Simulation time: 00 hr 37 min 48 sec)
Heartbeat CPU 6 instructions: 90000002 cycles: 22502517 heartbeat IPC: 4 cumulative IPC: 4 (Simulation time: 00 hr 37 min 48 sec)
Heartbeat CPU 7 instructions: 90000000 cycles: 22503373 heartbeat IPC: 4 cumulative IPC: 3.999 (Simulation time: 00 hr 37 min 49 sec)
Heartbeat CPU 4 instructions: 90000003 cycles: 22503436 heartbeat IPC: 4 cumulative IPC: 3.999 (Simulation time: 00 hr 37 min 49 sec)
Heartbeat CPU 5 instructions: 90000002 cycles: 22504031 heartbeat IPC: 4 cumulative IPC: 3.999 (Simulation time: 00 hr 37 min 49 sec)
Heartbeat CPU 2 instructions: 90000000 cycles: 23893536 heartbeat IPC: 3.922 cumulative IPC: 3.767 (Simulation time: 00 hr 40 min 09 sec)
Heartbeat CPU 0 instructions: 100000002 cycles: 25000086 heartbeat IPC: 4 cumulative IPC: 4 (Simulation time: 00 hr 42 min 00 sec)
Heartbeat CPU 1 instructions: 100000001 cycles: 25000314 heartbeat IPC: 4 cumulative IPC: 4 (Simulation time: 00 hr 42 min 00 sec)
Heartbeat CPU 3 instructions: 100000002 cycles: 25001471 heartbeat IPC: 4 cumulative IPC: 4 (Simulation time: 00 hr 42 min 01 sec)
Heartbeat CPU 6 instructions: 100000002 cycles: 25002881 heartbeat IPC: 3.999 cumulative IPC: 4 (Simulation time: 00 hr 42 min 01 sec)
Heartbeat CPU 7 instructions: 100000003 cycles: 25004164 heartbeat IPC: 3.999 cumulative IPC: 3.999 (Simulation time: 00 hr 42 min 01 sec)
Heartbeat CPU 5 instructions: 100000003 cycles: 25004225 heartbeat IPC: 4 cumulative IPC: 3.999 (Simulation time: 00 hr 42 min 01 sec)
Heartbeat CPU 4 instructions: 100000003 cycles: 25006802 heartbeat IPC: 3.995 cumulative IPC: 3.999 (Simulation time: 00 hr 42 min 01 sec)
Heartbeat CPU 2 instructions: 100000000 cycles: 26444238 heartbeat IPC: 3.92 cumulative IPC: 3.782 (Simulation time: 00 hr 44 min 25 sec)
Heartbeat CPU 0 instructions: 110000002 cycles: 27500086 heartbeat IPC: 4 cumulative IPC: 4 (Simulation time: 00 hr 46 min 11 sec)
Heartbeat CPU 1 instructions: 110000001 cycles: 27500314 heartbeat IPC: 4 cumulative IPC: 4 (Simulation time: 00 hr 46 min 11 sec)
Heartbeat CPU 3 instructions: 110000002 cycles: 27501471 heartbeat IPC: 4 cumulative IPC: 4 (Simulation time: 00 hr 46 min 11 sec)
Heartbeat CPU 6 instructions: 110000002 cycles: 27502881 heartbeat IPC: 4 cumulative IPC: 4 (Simulation time: 00 hr 46 min 11 sec)
Heartbeat CPU 7 instructions: 110000003 cycles: 27504164 heartbeat IPC: 4 cumulative IPC: 3.999 (Simulation time: 00 hr 46 min 11 sec)
Heartbeat CPU 5 instructions: 110000002 cycles: 27504448 heartbeat IPC: 4 cumulative IPC: 3.999 (Simulation time: 00 hr 46 min 11 sec)
Heartbeat CPU 4 instructions: 110000003 cycles: 27506802 heartbeat IPC: 4 cumulative IPC: 3.999 (Simulation time: 00 hr 46 min 12 sec)
Heartbeat CPU 2 instructions: 110000000 cycles: 28996471 heartbeat IPC: 3.918 cumulative IPC: 3.794 (Simulation time: 00 hr 48 min 41 sec)
Heartbeat CPU 0 instructions: 120000002 cycles: 30000086 heartbeat IPC: 4 cumulative IPC: 4 (Simulation time: 00 hr 50 min 22 sec)
Heartbeat CPU 1 instructions: 120000001 cycles: 30000314 heartbeat IPC: 4 cumulative IPC: 4 (Simulation time: 00 hr 50 min 22 sec)
Heartbeat CPU 3 instructions: 120000002 cycles: 30001471 heartbeat IPC: 4 cumulative IPC: 4 (Simulation time: 00 hr 50 min 22 sec)
Heartbeat CPU 6 instructions: 120000002 cycles: 30002881 heartbeat IPC: 4 cumulative IPC: 4 (Simulation time: 00 hr 50 min 22 sec)
Heartbeat CPU 7 instructions: 120000003 cycles: 30004164 heartbeat IPC: 4 cumulative IPC: 3.999 (Simulation time: 00 hr 50 min 22 sec)
Heartbeat CPU 5 instructions: 120000001 cycles: 30004638 heartbeat IPC: 4 cumulative IPC: 3.999 (Simulation time: 00 hr 50 min 22 sec)
Heartbeat CPU 4 instructions: 120000003 cycles: 30006802 heartbeat IPC: 4 cumulative IPC: 3.999 (Simulation time: 00 hr 50 min 22 sec)
Heartbeat CPU 2 instructions: 120000001 cycles: 31547777 heartbeat IPC: 3.92 cumulative IPC: 3.804 (Simulation time: 00 hr 52 min 57 sec)
Heartbeat CPU 0 instructions: 130000002 cycles: 32500086 heartbeat IPC: 4 cumulative IPC: 4 (Simulation time: 00 hr 54 min 33 sec)
Heartbeat CPU 1 instructions: 130000001 cycles: 32500314 heartbeat IPC: 4 cumulative IPC: 4 (Simulation time: 00 hr 54 min 33 sec)
Heartbeat CPU 3 instructions: 130000002 cycles: 32501471 heartbeat IPC: 4 cumulative IPC: 4 (Simulation time: 00 hr 54 min 33 sec)
Heartbeat CPU 6 instructions: 130000000 cycles: 32502978 heartbeat IPC: 4 cumulative IPC: 4 (Simulation time: 00 hr 54 min 33 sec)
Heartbeat CPU 7 instructions: 130000000 cycles: 32504176 heartbeat IPC: 4 cumulative IPC: 3.999 (Simulation time: 00 hr 54 min 34 sec)
Heartbeat CPU 5 instructions: 130000000 cycles: 32504828 heartbeat IPC: 4 cumulative IPC: 3.999 (Simulation time: 00 hr 54 min 34 sec)
Heartbeat CPU 4 instructions: 130000003 cycles: 32506838 heartbeat IPC: 4 cumulative IPC: 3.999 (Simulation time: 00 hr 54 min 34 sec)
Heartbeat CPU 2 instructions: 130000003 cycles: 34098026 heartbeat IPC: 3.921 cumulative IPC: 3.813 (Simulation time: 00 hr 57 min 14 sec)
Heartbeat CPU 0 instructions: 140000002 cycles: 35000086 heartbeat IPC: 4 cumulative IPC: 4 (Simulation time: 00 hr 58 min 45 sec)
Heartbeat CPU 1 instructions: 140000001 cycles: 35000314 heartbeat IPC: 4 cumulative IPC: 4 (Simulation time: 00 hr 58 min 45 sec)
Heartbeat CPU 3 instructions: 140000002 cycles: 35001471 heartbeat IPC: 4 cumulative IPC: 4 (Simulation time: 00 hr 58 min 45 sec)
Heartbeat CPU 6 instructions: 140000003 cycles: 35003035 heartbeat IPC: 4 cumulative IPC: 4 (Simulation time: 00 hr 58 min 45 sec)
Heartbeat CPU 7 instructions: 140000000 cycles: 35004176 heartbeat IPC: 4 cumulative IPC: 4 (Simulation time: 00 hr 58 min 45 sec)
Heartbeat CPU 5 instructions: 140000003 cycles: 35005264 heartbeat IPC: 3.999 cumulative IPC: 3.999 (Simulation time: 00 hr 58 min 45 sec)
Heartbeat CPU 4 instructions: 140000003 cycles: 35006838 heartbeat IPC: 4 cumulative IPC: 3.999 (Simulation time: 00 hr 58 min 46 sec)
Heartbeat CPU 2 instructions: 140000002 cycles: 36650012 heartbeat IPC: 3.919 cumulative IPC: 3.82 (Simulation time: 01 hr 01 min 31 sec)
Heartbeat CPU 0 instructions: 150000002 cycles: 37500086 heartbeat IPC: 4 cumulative IPC: 4 (Simulation time: 01 hr 02 min 57 sec)
Heartbeat CPU 1 instructions: 150000001 cycles: 37500314 heartbeat IPC: 4 cumulative IPC: 4 (Simulation time: 01 hr 02 min 57 sec)
Heartbeat CPU 3 instructions: 150000002 cycles: 37501471 heartbeat IPC: 4 cumulative IPC: 4 (Simulation time: 01 hr 02 min 57 sec)
Heartbeat CPU 6 instructions: 150000003 cycles: 37503035 heartbeat IPC: 4 cumulative IPC: 4 (Simulation time: 01 hr 02 min 58 sec)
Heartbeat CPU 7 instructions: 150000000 cycles: 37504176 heartbeat IPC: 4 cumulative IPC: 4 (Simulation time: 01 hr 02 min 58 sec)
Heartbeat CPU 5 instructions: 150000002 cycles: 37505474 heartbeat IPC: 4 cumulative IPC: 3.999 (Simulation time: 01 hr 02 min 58 sec)
Heartbeat CPU 4 instructions: 150000003 cycles: 37506838 heartbeat IPC: 4 cumulative IPC: 3.999 (Simulation time: 01 hr 02 min 58 sec)
Heartbeat CPU 2 instructions: 150000002 cycles: 39201628 heartbeat IPC: 3.919 cumulative IPC: 3.826 (Simulation time: 01 hr 05 min 51 sec)
Heartbeat CPU 0 instructions: 160000002 cycles: 40000086 heartbeat IPC: 4 cumulative IPC: 4 (Simulation time: 01 hr 07 min 12 sec)
Heartbeat CPU 1 instructions: 160000001 cycles: 40000314 heartbeat IPC: 4 cumulative IPC: 4 (Simulation time: 01 hr 07 min 12 sec)
Heartbeat CPU 3 instructions: 160000003 cycles: 40001917 heartbeat IPC: 3.999 cumulative IPC: 4 (Simulation time: 01 hr 07 min 12 sec)
Heartbeat CPU 6 instructions: 160000003 cycles: 40003035 heartbeat IPC: 4 cumulative IPC: 4 (Simulation time: 01 hr 07 min 12 sec)
Heartbeat CPU 7 instructions: 160000001 cycles: 40004696 heartbeat IPC: 3.999 cumulative IPC: 4 (Simulation time: 01 hr 07 min 12 sec)
Heartbeat CPU 5 instructions: 160000000 cycles: 40005653 heartbeat IPC: 4 cumulative IPC: 3.999 (Simulation time: 01 hr 07 min 13 sec)
Heartbeat CPU 4 instructions: 160000003 cycles: 40007250 heartbeat IPC: 3.999 cumulative IPC: 3.999 (Simulation time: 01 hr 07 min 13 sec)
Heartbeat CPU 2 instructions: 160000001 cycles: 41753640 heartbeat IPC: 3.918 cumulative IPC: 3.832 (Simulation time: 01 hr 10 min 11 sec)
Heartbeat CPU 0 instructions: 170000002 cycles: 42500086 heartbeat IPC: 4 cumulative IPC: 4 (Simulation time: 01 hr 11 min 27 sec)
Heartbeat CPU 1 instructions: 170000001 cycles: 42500314 heartbeat IPC: 4 cumulative IPC: 4 (Simulation time: 01 hr 11 min 27 sec)
Heartbeat CPU 3 instructions: 170000003 cycles: 42501917 heartbeat IPC: 4 cumulative IPC: 4 (Simulation time: 01 hr 11 min 27 sec)
Heartbeat CPU 6 instructions: 170000000 cycles: 42503393 heartbeat IPC: 3.999 cumulative IPC: 4 (Simulation time: 01 hr 11 min 27 sec)
Heartbeat CPU 7 instructions: 170000001 cycles: 42504696 heartbeat IPC: 4 cumulative IPC: 4 (Simulation time: 01 hr 11 min 27 sec)
Heartbeat CPU 5 instructions: 170000002 cycles: 42505839 heartbeat IPC: 4 cumulative IPC: 3.999 (Simulation time: 01 hr 11 min 28 sec)
Heartbeat CPU 4 instructions: 170000003 cycles: 42507250 heartbeat IPC: 4 cumulative IPC: 3.999 (Simulation time: 01 hr 11 min 28 sec)
Heartbeat CPU 2 instructions: 170000003 cycles: 44303667 heartbeat IPC: 3.922 cumulative IPC: 3.837 (Simulation time: 01 hr 14 min 31 sec)
Heartbeat CPU 0 instructions: 180000002 cycles: 45000086 heartbeat IPC: 4 cumulative IPC: 4 (Simulation time: 01 hr 15 min 42 sec)
Heartbeat CPU 1 instructions: 180000001 cycles: 45000314 heartbeat IPC: 4 cumulative IPC: 4 (Simulation time: 01 hr 15 min 42 sec)
Heartbeat CPU 3 instructions: 180000003 cycles: 45001917 heartbeat IPC: 4 cumulative IPC: 4 (Simulation time: 01 hr 15 min 42 sec)
Heartbeat CPU 6 instructions: 180000000 cycles: 45003393 heartbeat IPC: 4 cumulative IPC: 4 (Simulation time: 01 hr 15 min 43 sec)
Heartbeat CPU 7 instructions: 180000001 cycles: 45004696 heartbeat IPC: 4 cumulative IPC: 4 (Simulation time: 01 hr 15 min 43 sec)
Heartbeat CPU 5 instructions: 180000002 cycles: 45006037 heartbeat IPC: 4 cumulative IPC: 3.999 (Simulation time: 01 hr 15 min 43 sec)
Heartbeat CPU 4 instructions: 180000003 cycles: 45007250 heartbeat IPC: 4 cumulative IPC: 3.999 (Simulation time: 01 hr 15 min 43 sec)
Heartbeat CPU 2 instructions: 180000000 cycles: 46853150 heartbeat IPC: 3.922 cumulative IPC: 3.842 (Simulation time: 01 hr 18 min 52 sec)
Heartbeat CPU 0 instructions: 190000002 cycles: 47500086 heartbeat IPC: 4 cumulative IPC: 4 (Simulation time: 01 hr 19 min 58 sec)
Heartbeat CPU 1 instructions: 190000001 cycles: 47500314 heartbeat IPC: 4 cumulative IPC: 4 (Simulation time: 01 hr 19 min 58 sec)
Heartbeat CPU 3 instructions: 190000003 cycles: 47501917 heartbeat IPC: 4 cumulative IPC: 4 (Simulation time: 01 hr 19 min 58 sec)
Heartbeat CPU 6 instructions: 190000000 cycles: 47503393 heartbeat IPC: 4 cumulative IPC: 4 (Simulation time: 01 hr 19 min 58 sec)
Heartbeat CPU 7 instructions: 190000001 cycles: 47504696 heartbeat IPC: 4 cumulative IPC: 4 (Simulation time: 01 hr 19 min 58 sec)
Heartbeat CPU 5 instructions: 190000001 cycles: 47506220 heartbeat IPC: 4 cumulative IPC: 3.999 (Simulation time: 01 hr 19 min 59 sec)
Heartbeat CPU 4 instructions: 190000003 cycles: 47507250 heartbeat IPC: 4 cumulative IPC: 3.999 (Simulation time: 01 hr 19 min 59 sec)
Heartbeat CPU 2 instructions: 190000001 cycles: 49403200 heartbeat IPC: 3.921 cumulative IPC: 3.846 (Simulation time: 01 hr 23 min 12 sec)
Heartbeat CPU 0 instructions: 200000002 cycles: 50000086 heartbeat IPC: 4 cumulative IPC: 4 (Simulation time: 01 hr 24 min 13 sec)
Warmup finished CPU 0 instructions: 200000002 cycles: 50000087 cumulative IPC: 4 (Simulation time: 01 hr 24 min 13 sec)
Heartbeat CPU 1 instructions: 200000001 cycles: 50000314 heartbeat IPC: 4 cumulative IPC: 4 (Simulation time: 01 hr 24 min 13 sec)
Warmup finished CPU 1 instructions: 200000001 cycles: 50000315 cumulative IPC: 4 (Simulation time: 01 hr 24 min 13 sec)
Heartbeat CPU 3 instructions: 200000003 cycles: 50001917 heartbeat IPC: 4 cumulative IPC: 4 (Simulation time: 01 hr 24 min 13 sec)
Warmup finished CPU 3 instructions: 200000003 cycles: 50001918 cumulative IPC: 4 (Simulation time: 01 hr 24 min 13 sec)
Heartbeat CPU 6 instructions: 200000001 cycles: 50003448 heartbeat IPC: 4 cumulative IPC: 4 (Simulation time: 01 hr 24 min 13 sec)
Warmup finished CPU 6 instructions: 200000001 cycles: 50003449 cumulative IPC: 4 (Simulation time: 01 hr 24 min 13 sec)
Heartbeat CPU 7 instructions: 200000001 cycles: 50004696 heartbeat IPC: 4 cumulative IPC: 4 (Simulation time: 01 hr 24 min 13 sec)
Warmup finished CPU 7 instructions: 200000001 cycles: 50004697 cumulative IPC: 4 (Simulation time: 01 hr 24 min 13 sec)
Heartbeat CPU 5 instructions: 200000001 cycles: 50006586 heartbeat IPC: 3.999 cumulative IPC: 3.999 (Simulation time: 01 hr 24 min 13 sec)
Warmup finished CPU 5 instructions: 200000001 cycles: 50006587 cumulative IPC: 3.999 (Simulation time: 01 hr 24 min 13 sec)
Heartbeat CPU 4 instructions: 200000003 cycles: 50007250 heartbeat IPC: 4 cumulative IPC: 3.999 (Simulation time: 01 hr 24 min 14 sec)
Warmup finished CPU 4 instructions: 200000003 cycles: 50007251 cumulative IPC: 3.999 (Simulation time: 01 hr 24 min 14 sec)
Heartbeat CPU 2 instructions: 200000000 cycles: 51954496 heartbeat IPC: 3.92 cumulative IPC: 3.85 (Simulation time: 01 hr 27 min 31 sec)
Warmup finished CPU 2 instructions: 200000000 cycles: 51954497 cumulative IPC: 3.85 (Simulation time: 01 hr 27 min 31 sec)
Warmup complete CPU 0 instructions: 207817642 cycles: 51954497 cumulative IPC: 4 (Simulation time: 01 hr 27 min 31 sec)
Warmup complete CPU 1 instructions: 207816729 cycles: 51954497 cumulative IPC: 4 (Simulation time: 01 hr 27 min 31 sec)
Warmup complete CPU 2 instructions: 200000000 cycles: 51954497 cumulative IPC: 3.85 (Simulation time: 01 hr 27 min 31 sec)
Warmup complete CPU 3 instructions: 207810319 cycles: 51954497 cumulative IPC: 4 (Simulation time: 01 hr 27 min 31 sec)
Warmup complete CPU 4 instructions: 207788987 cycles: 51954497 cumulative IPC: 3.999 (Simulation time: 01 hr 27 min 31 sec)
Warmup complete CPU 5 instructions: 207791641 cycles: 51954497 cumulative IPC: 3.999 (Simulation time: 01 hr 27 min 31 sec)
Warmup complete CPU 6 instructions: 207804193 cycles: 51954497 cumulative IPC: 4 (Simulation time: 01 hr 27 min 31 sec)
Warmup complete CPU 7 instructions: 207799201 cycles: 51954497 cumulative IPC: 4 (Simulation time: 01 hr 27 min 31 sec)
Heartbeat CPU 6 instructions: 210000000 cycles: 52626598 heartbeat IPC: 3.812 cumulative IPC: 3.267 (Simulation time: 01 hr 28 min 19 sec)
Heartbeat CPU 5 instructions: 210000003 cycles: 53009976 heartbeat IPC: 3.33 cumulative IPC: 2.092 (Simulation time: 01 hr 28 min 47 sec)
Heartbeat CPU 1 instructions: 210000002 cycles: 53055572 heartbeat IPC: 3.273 cumulative IPC: 1.983 (Simulation time: 01 hr 28 min 50 sec)
Heartbeat CPU 0 instructions: 210000001 cycles: 53644090 heartbeat IPC: 2.744 cumulative IPC: 1.292 (Simulation time: 01 hr 29 min 32 sec)
Heartbeat CPU 7 instructions: 210000000 cycles: 53923736 heartbeat IPC: 2.552 cumulative IPC: 1.118 (Simulation time: 01 hr 29 min 52 sec)
Heartbeat CPU 3 instructions: 210000001 cycles: 53952202 heartbeat IPC: 2.531 cumulative IPC: 1.096 (Simulation time: 01 hr 29 min 54 sec)
Heartbeat CPU 4 instructions: 210000003 cycles: 53953448 heartbeat IPC: 2.534 cumulative IPC: 1.106 (Simulation time: 01 hr 29 min 54 sec)
Heartbeat CPU 6 instructions: 220000001 cycles: 55788344 heartbeat IPC: 3.163 cumulative IPC: 3.181 (Simulation time: 01 hr 32 min 04 sec)
Heartbeat CPU 5 instructions: 220000000 cycles: 57673947 heartbeat IPC: 2.144 cumulative IPC: 2.135 (Simulation time: 01 hr 34 min 19 sec)
Heartbeat CPU 1 instructions: 220000000 cycles: 58138759 heartbeat IPC: 1.967 cumulative IPC: 1.97 (Simulation time: 01 hr 34 min 52 sec)
Heartbeat CPU 6 instructions: 230000002 cycles: 58831904 heartbeat IPC: 3.286 cumulative IPC: 3.227 (Simulation time: 01 hr 35 min 41 sec)
Heartbeat CPU 2 instructions: 210000001 cycles: 60562866 heartbeat IPC: 1.162 cumulative IPC: 1.162 (Simulation time: 01 hr 37 min 43 sec)
Heartbeat CPU 0 instructions: 220000001 cycles: 61726488 heartbeat IPC: 1.237 cumulative IPC: 1.247 (Simulation time: 01 hr 39 min 04 sec)
Heartbeat CPU 6 instructions: 240000003 cycles: 61924433 heartbeat IPC: 3.234 cumulative IPC: 3.229 (Simulation time: 01 hr 39 min 18 sec)
Heartbeat CPU 5 instructions: 230000000 cycles: 62377692 heartbeat IPC: 2.126 cumulative IPC: 2.131 (Simulation time: 01 hr 39 min 51 sec)
Heartbeat CPU 7 instructions: 220000001 cycles: 62794330 heartbeat IPC: 1.127 cumulative IPC: 1.126 (Simulation time: 01 hr 40 min 22 sec)
Heartbeat CPU 3 instructions: 220000003 cycles: 63046951 heartbeat IPC: 1.1 cumulative IPC: 1.099 (Simulation time: 01 hr 40 min 39 sec)
Heartbeat CPU 1 instructions: 230000003 cycles: 63190194 heartbeat IPC: 1.98 cumulative IPC: 1.974 (Simulation time: 01 hr 40 min 49 sec)
Heartbeat CPU 4 instructions: 220000002 cycles: 63576296 heartbeat IPC: 1.039 cumulative IPC: 1.051 (Simulation time: 01 hr 41 min 16 sec)
Heartbeat CPU 6 instructions: 250000001 cycles: 65109634 heartbeat IPC: 3.14 cumulative IPC: 3.208 (Simulation time: 01 hr 43 min 04 sec)
Heartbeat CPU 5 instructions: 240000000 cycles: 67090716 heartbeat IPC: 2.122 cumulative IPC: 2.128 (Simulation time: 01 hr 45 min 25 sec)
Heartbeat CPU 6 instructions: 260000002 cycles: 68249763 heartbeat IPC: 3.185 cumulative IPC: 3.203 (Simulation time: 01 hr 46 min 46 sec)
Heartbeat CPU 1 instructions: 240000001 cycles: 68264603 heartbeat IPC: 1.971 cumulative IPC: 1.973 (Simulation time: 01 hr 46 min 48 sec)
Heartbeat CPU 2 instructions: 220000000 cycles: 69188597 heartbeat IPC: 1.159 cumulative IPC: 1.16 (Simulation time: 01 hr 47 min 53 sec)
Heartbeat CPU 0 instructions: 230000001 cycles: 70314191 heartbeat IPC: 1.164 cumulative IPC: 1.208 (Simulation time: 01 hr 49 min 13 sec)
Heartbeat CPU 6 instructions: 270000003 cycles: 71259257 heartbeat IPC: 3.323 cumulative IPC: 3.222 (Simulation time: 01 hr 50 min 20 sec)
Heartbeat CPU 7 instructions: 230000003 cycles: 71783077 heartbeat IPC: 1.113 cumulative IPC: 1.12 (Simulation time: 01 hr 50 min 57 sec)
Heartbeat CPU 5 instructions: 250000001 cycles: 71800407 heartbeat IPC: 2.123 cumulative IPC: 2.127 (Simulation time: 01 hr 50 min 59 sec)
Heartbeat CPU 3 instructions: 230000003 cycles: 72318090 heartbeat IPC: 1.079 cumulative IPC: 1.09 (Simulation time: 01 hr 51 min 35 sec)
Heartbeat CPU 4 instructions: 230000003 cycles: 72559142 heartbeat IPC: 1.113 cumulative IPC: 1.078 (Simulation time: 01 hr 51 min 53 sec)
Heartbeat CPU 1 instructions: 250000000 cycles: 73309283 heartbeat IPC: 1.982 cumulative IPC: 1.975 (Simulation time: 01 hr 52 min 46 sec)
Heartbeat CPU 6 instructions: 280000000 cycles: 74203612 heartbeat IPC: 3.396 cumulative IPC: 3.245 (Simulation time: 01 hr 53 min 50 sec)
Heartbeat CPU 5 instructions: 260000000 cycles: 76544030 heartbeat IPC: 2.108 cumulative IPC: 2.123 (Simulation time: 01 hr 56 min 36 sec)
Heartbeat CPU 6 instructions: 290000000 cycles: 77282824 heartbeat IPC: 3.248 cumulative IPC: 3.245 (Simulation time: 01 hr 57 min 29 sec)
Heartbeat CPU 2 instructions: 230000002 cycles: 77810797 heartbeat IPC: 1.16 cumulative IPC: 1.16 (Simulation time: 01 hr 58 min 06 sec)
Heartbeat CPU 0 instructions: 240000002 cycles: 77865563 heartbeat IPC: 1.324 cumulative IPC: 1.242 (Simulation time: 01 hr 58 min 10 sec)
Heartbeat CPU 1 instructions: 260000003 cycles: 78380580 heartbeat IPC: 1.972 cumulative IPC: 1.975 (Simulation time: 01 hr 58 min 47 sec)
Heartbeat CPU 6 instructions: 300000000 cycles: 80564647 heartbeat IPC: 3.047 cumulative IPC: 3.222 (Simulation time: 02 hr 01 min 20 sec)
Heartbeat CPU 7 instructions: 240000001 cycles: 80672664 heartbeat IPC: 1.125 cumulative IPC: 1.121 (Simulation time: 02 hr 01 min 28 sec)
Heartbeat CPU 5 instructions: 270000000 cycles: 81274625 heartbeat IPC: 2.114 cumulative IPC: 2.122 (Simulation time: 02 hr 02 min 11 sec)
Heartbeat CPU 3 instructions: 240000003 cycles: 81470939 heartbeat IPC: 1.093 cumulative IPC: 1.091 (Simulation time: 02 hr 02 min 24 sec)
Heartbeat CPU 4 instructions: 240000003 cycles: 81590234 heartbeat IPC: 1.107 cumulative IPC: 1.087 (Simulation time: 02 hr 02 min 32 sec)
Heartbeat CPU 1 instructions: 270000003 cycles: 83443399 heartbeat IPC: 1.975 cumulative IPC: 1.975 (Simulation time: 02 hr 04 min 39 sec)
Heartbeat CPU 6 instructions: 310000001 cycles: 84122084 heartbeat IPC: 2.811 cumulative IPC: 3.177 (Simulation time: 02 hr 05 min 25 sec)
Heartbeat CPU 0 instructions: 250000002 cycles: 85730632 heartbeat IPC: 1.271 cumulative IPC: 1.249 (Simulation time: 02 hr 07 min 16 sec)
Heartbeat CPU 5 instructions: 280000001 cycles: 85987128 heartbeat IPC: 2.122 cumulative IPC: 2.122 (Simulation time: 02 hr 07 min 34 sec)
Heartbeat CPU 2 instructions: 240000002 cycles: 86460797 heartbeat IPC: 1.156 cumulative IPC: 1.159 (Simulation time: 02 hr 08 min 07 sec)
Heartbeat CPU 6 instructions: 320000001 cycles: 87324085 heartbeat IPC: 3.123 cumulative IPC: 3.172 (Simulation time: 02 hr 09 min 09 sec)
Heartbeat CPU 1 instructions: 280000002 cycles: 88562405 heartbeat IPC: 1.954 cumulative IPC: 1.972 (Simulation time: 02 hr 10 min 36 sec)
Heartbeat CPU 7 instructions: 250000003 cycles: 89437504 heartbeat IPC: 1.141 cumulative IPC: 1.126 (Simulation time: 02 hr 11 min 38 sec)
Heartbeat CPU 6 instructions: 330000002 cycles: 90413875 heartbeat IPC: 3.236 cumulative IPC: 3.177 (Simulation time: 02 hr 12 min 47 sec)
Heartbeat CPU 3 instructions: 250000003 cycles: 90469296 heartbeat IPC: 1.111 cumulative IPC: 1.095 (Simulation time: 02 hr 12 min 51 sec)
Heartbeat CPU 5 instructions: 290000001 cycles: 90714832 heartbeat IPC: 2.115 cumulative IPC: 2.121 (Simulation time: 02 hr 13 min 08 sec)
Heartbeat CPU 4 instructions: 250000002 cycles: 91551080 heartbeat IPC: 1.004 cumulative IPC: 1.066 (Simulation time: 02 hr 14 min 08 sec)
Heartbeat CPU 6 instructions: 340000002 cycles: 93447255 heartbeat IPC: 3.297 cumulative IPC: 3.186 (Simulation time: 02 hr 16 min 22 sec)
Heartbeat CPU 0 instructions: 260000002 cycles: 93689054 heartbeat IPC: 1.257 cumulative IPC: 1.25 (Simulation time: 02 hr 16 min 39 sec)
Heartbeat CPU 1 instructions: 290000000 cycles: 93701604 heartbeat IPC: 1.946 cumulative IPC: 1.969 (Simulation time: 02 hr 16 min 40 sec)
Heartbeat CPU 2 instructions: 250000001 cycles: 95092473 heartbeat IPC: 1.159 cumulative IPC: 1.159 (Simulation time: 02 hr 18 min 19 sec)
Heartbeat CPU 5 instructions: 300000001 cycles: 95435653 heartbeat IPC: 2.118 cumulative IPC: 2.121 (Simulation time: 02 hr 18 min 42 sec)
Heartbeat CPU 6 instructions: 350000001 cycles: 96613243 heartbeat IPC: 3.159 cumulative IPC: 3.184 (Simulation time: 02 hr 20 min 06 sec)
Heartbeat CPU 7 instructions: 260000003 cycles: 98349149 heartbeat IPC: 1.122 cumulative IPC: 1.125 (Simulation time: 02 hr 22 min 07 sec)
Heartbeat CPU 1 instructions: 300000003 cycles: 98863033 heartbeat IPC: 1.937 cumulative IPC: 1.965 (Simulation time: 02 hr 22 min 44 sec)
Heartbeat CPU 3 instructions: 260000003 cycles: 99630406 heartbeat IPC: 1.092 cumulative IPC: 1.095 (Simulation time: 02 hr 23 min 38 sec)
Heartbeat CPU 6 instructions: 360000003 cycles: 99844692 heartbeat IPC: 3.095 cumulative IPC: 3.178 (Simulation time: 02 hr 23 min 53 sec)
Heartbeat CPU 5 instructions: 310000001 cycles: 100138673 heartbeat IPC: 2.126 cumulative IPC: 2.121 (Simulation time: 02 hr 24 min 13 sec)
Heartbeat CPU 4 instructions: 260000002 cycles: 100452904 heartbeat IPC: 1.123 cumulative IPC: 1.077 (Simulation time: 02 hr 24 min 35 sec)
Heartbeat CPU 0 instructions: 270000003 cycles: 101418904 heartbeat IPC: 1.294 cumulative IPC: 1.257 (Simulation time: 02 hr 25 min 44 sec)
Heartbeat CPU 6 instructions: 370000000 cycles: 102734315 heartbeat IPC: 3.461 cumulative IPC: 3.194 (Simulation time: 02 hr 27 min 19 sec)
Heartbeat CPU 2 instructions: 260000003 cycles: 103669414 heartbeat IPC: 1.166 cumulative IPC: 1.16 (Simulation time: 02 hr 28 min 26 sec)
Heartbeat CPU 1 instructions: 310000000 cycles: 104085374 heartbeat IPC: 1.915 cumulative IPC: 1.96 (Simulation time: 02 hr 28 min 56 sec)
Heartbeat CPU 5 instructions: 320000001 cycles: 104886518 heartbeat IPC: 2.106 cumulative IPC: 2.12 (Simulation time: 02 hr 29 min 52 sec)
Heartbeat CPU 6 instructions: 380000000 cycles: 105701979 heartbeat IPC: 3.37 cumulative IPC: 3.204 (Simulation time: 02 hr 30 min 49 sec)
Heartbeat CPU 7 instructions: 270000002 cycles: 106753712 heartbeat IPC: 1.19 cumulative IPC: 1.135 (Simulation time: 02 hr 32 min 02 sec)
Heartbeat CPU 3 instructions: 270000002 cycles: 107897164 heartbeat IPC: 1.21 cumulative IPC: 1.112 (Simulation time: 02 hr 33 min 22 sec)
Heartbeat CPU 4 instructions: 270000000 cycles: 108816389 heartbeat IPC: 1.196 cumulative IPC: 1.094 (Simulation time: 02 hr 34 min 29 sec)
Heartbeat CPU 6 instructions: 390000002 cycles: 108875757 heartbeat IPC: 3.151 cumulative IPC: 3.201 (Simulation time: 02 hr 34 min 33 sec)
Heartbeat CPU 0 instructions: 280000000 cycles: 108939245 heartbeat IPC: 1.33 cumulative IPC: 1.267 (Simulation time: 02 hr 34 min 38 sec)
Heartbeat CPU 1 instructions: 320000003 cycles: 109290489 heartbeat IPC: 1.921 cumulative IPC: 1.957 (Simulation time: 02 hr 35 min 02 sec)
Heartbeat CPU 5 instructions: 330000000 cycles: 109610984 heartbeat IPC: 2.117 cumulative IPC: 2.12 (Simulation time: 02 hr 35 min 25 sec)
Heartbeat CPU 2 instructions: 270000001 cycles: 111776322 heartbeat IPC: 1.234 cumulative IPC: 1.17 (Simulation time: 02 hr 37 min 56 sec)
Heartbeat CPU 6 instructions: 400000001 cycles: 112001967 heartbeat IPC: 3.199 cumulative IPC: 3.201 (Simulation time: 02 hr 38 min 12 sec)
Simulation finished CPU 6 instructions: 200000001 cycles: 62427106 cumulative IPC: 3.204 (Simulation time: 02 hr 41 min 02 sec)
Heartbeat CPU 5 instructions: 340000003 cycles: 114766509 heartbeat IPC: 1.94 cumulative IPC: 2.105 (Simulation time: 02 hr 41 min 28 sec)
Heartbeat CPU 1 instructions: 330000003 cycles: 114836639 heartbeat IPC: 1.803 cumulative IPC: 1.943 (Simulation time: 02 hr 41 min 33 sec)
Heartbeat CPU 7 instructions: 280000001 cycles: 115021776 heartbeat IPC: 1.209 cumulative IPC: 1.145 (Simulation time: 02 hr 41 min 46 sec)
Heartbeat CPU 6 instructions: 410000000 cycles: 115072045 heartbeat IPC: 3.257 cumulative IPC: 3.203 (Simulation time: 02 hr 41 min 50 sec)
Heartbeat CPU 3 instructions: 280000001 cycles: 116756502 heartbeat IPC: 1.129 cumulative IPC: 1.114 (Simulation time: 02 hr 43 min 51 sec)
Heartbeat CPU 0 instructions: 290000001 cycles: 117225958 heartbeat IPC: 1.207 cumulative IPC: 1.259 (Simulation time: 02 hr 44 min 25 sec)
Heartbeat CPU 6 instructions: 420000001 cycles: 118143582 heartbeat IPC: 3.256 cumulative IPC: 3.206 (Simulation time: 02 hr 45 min 30 sec)
Heartbeat CPU 4 instructions: 280000003 cycles: 118206214 heartbeat IPC: 1.065 cumulative IPC: 1.09 (Simulation time: 02 hr 45 min 34 sec)
Heartbeat CPU 5 instructions: 350000002 cycles: 119509356 heartbeat IPC: 2.108 cumulative IPC: 2.105 (Simulation time: 02 hr 47 min 08 sec)
Heartbeat CPU 1 instructions: 340000001 cycles: 119883730 heartbeat IPC: 1.981 cumulative IPC: 1.946 (Simulation time: 02 hr 47 min 36 sec)
Heartbeat CPU 2 instructions: 280000000 cycles: 120626316 heartbeat IPC: 1.13 cumulative IPC: 1.165 (Simulation time: 02 hr 48 min 29 sec)
Heartbeat CPU 6 instructions: 430000001 cycles: 121149774 heartbeat IPC: 3.326 cumulative IPC: 3.211 (Simulation time: 02 hr 49 min 06 sec)
Heartbeat CPU 5 instructions: 360000000 cycles: 124151176 heartbeat IPC: 2.154 cumulative IPC: 2.108 (Simulation time: 02 hr 52 min 40 sec)
Heartbeat CPU 7 instructions: 290000003 cycles: 124249624 heartbeat IPC: 1.084 cumulative IPC: 1.137 (Simulation time: 02 hr 52 min 47 sec)
Heartbeat CPU 6 instructions: 440000000 cycles: 124371773 heartbeat IPC: 3.104 cumulative IPC: 3.206 (Simulation time: 02 hr 52 min 56 sec)
Heartbeat CPU 0 instructions: 300000002 cycles: 124839450 heartbeat IPC: 1.313 cumulative IPC: 1.265 (Simulation time: 02 hr 53 min 30 sec)
Heartbeat CPU 1 instructions: 350000002 cycles: 124946397 heartbeat IPC: 1.975 cumulative IPC: 1.948 (Simulation time: 02 hr 53 min 38 sec)
Heartbeat CPU 3 instructions: 290000001 cycles: 126224747 heartbeat IPC: 1.056 cumulative IPC: 1.107 (Simulation time: 02 hr 55 min 11 sec)
Heartbeat CPU 6 instructions: 450000000 cycles: 127166747 heartbeat IPC: 3.578 cumulative IPC: 3.22 (Simulation time: 02 hr 56 min 20 sec)
Heartbeat CPU 4 instructions: 290000000 cycles: 127549332 heartbeat IPC: 1.07 cumulative IPC: 1.088 (Simulation time: 02 hr 56 min 47 sec)
Heartbeat CPU 5 instructions: 370000003 cycles: 128716711 heartbeat IPC: 2.19 cumulative IPC: 2.113 (Simulation time: 02 hr 58 min 11 sec)
Heartbeat CPU 2 instructions: 290000000 cycles: 129342836 heartbeat IPC: 1.147 cumulative IPC: 1.163 (Simulation time: 02 hr 58 min 56 sec)
Heartbeat CPU 1 instructions: 360000000 cycles: 129952472 heartbeat IPC: 1.998 cumulative IPC: 1.951 (Simulation time: 02 hr 59 min 40 sec)
Heartbeat CPU 6 instructions: 460000003 cycles: 130297118 heartbeat IPC: 3.195 cumulative IPC: 3.219 (Simulation time: 03 hr 00 min 05 sec)
Heartbeat CPU 0 instructions: 310000002 cycles: 132836508 heartbeat IPC: 1.25 cumulative IPC: 1.263 (Simulation time: 03 hr 02 min 58 sec)
Heartbeat CPU 5 instructions: 380000001 cycles: 133270651 heartbeat IPC: 2.196 cumulative IPC: 2.118 (Simulation time: 03 hr 03 min 24 sec)
Heartbeat CPU 7 instructions: 300000003 cycles: 133385410 heartbeat IPC: 1.095 cumulative IPC: 1.132 (Simulation time: 03 hr 03 min 31 sec)
Heartbeat CPU 1 instructions: 370000003 cycles: 135036996 heartbeat IPC: 1.967 cumulative IPC: 1.952 (Simulation time: 03 hr 05 min 11 sec)
Heartbeat CPU 3 instructions: 300000003 cycles: 135922757 heartbeat IPC: 1.031 cumulative IPC: 1.098 (Simulation time: 03 hr 06 min 07 sec)
Heartbeat CPU 4 instructions: 300000000 cycles: 138899035 heartbeat IPC: 0.8811 cumulative IPC: 1.061 (Simulation time: 03 hr 08 min 52 sec)
Heartbeat CPU 2 instructions: 300000000 cycles: 139240089 heartbeat IPC: 1.01 cumulative IPC: 1.146 (Simulation time: 03 hr 09 min 10 sec)
Heartbeat CPU 6 instructions: 470000000 cycles: 140036202 heartbeat IPC: 1.027 cumulative IPC: 2.977 (Simulation time: 03 hr 09 min 57 sec)
Heartbeat CPU 1 instructions: 380000000 cycles: 140179119 heartbeat IPC: 1.945 cumulative IPC: 1.952 (Simulation time: 03 hr 10 min 06 sec)
Heartbeat CPU 0 instructions: 320000002 cycles: 142107234 heartbeat IPC: 1.079 cumulative IPC: 1.244 (Simulation time: 03 hr 11 min 55 sec)
Heartbeat CPU 5 instructions: 390000001 cycles: 144627113 heartbeat IPC: 0.8806 cumulative IPC: 1.966 (Simulation time: 03 hr 14 min 23 sec)
Heartbeat CPU 1 instructions: 390000000 cycles: 145310802 heartbeat IPC: 1.949 cumulative IPC: 1.951 (Simulation time: 03 hr 15 min 09 sec)
Heartbeat CPU 7 instructions: 310000001 cycles: 146654482 heartbeat IPC: 0.7536 cumulative IPC: 1.079 (Simulation time: 03 hr 16 min 38 sec)
Heartbeat CPU 6 instructions: 480000002 cycles: 147135474 heartbeat IPC: 1.409 cumulative IPC: 2.86 (Simulation time: 03 hr 17 min 11 sec)
Heartbeat CPU 5 instructions: 400000003 cycles: 148825881 heartbeat IPC: 2.382 cumulative IPC: 1.984 (Simulation time: 03 hr 19 min 08 sec)
Heartbeat CPU 3 instructions: 310000001 cycles: 149404890 heartbeat IPC: 0.7417 cumulative IPC: 1.049 (Simulation time: 03 hr 19 min 48 sec)
Heartbeat CPU 2 instructions: 310000001 cycles: 149717717 heartbeat IPC: 0.9544 cumulative IPC: 1.125 (Simulation time: 03 hr 20 min 11 sec)
Heartbeat CPU 1 instructions: 400000000 cycles: 150377139 heartbeat IPC: 1.974 cumulative IPC: 1.953 (Simulation time: 03 hr 20 min 54 sec)
Heartbeat CPU 0 instructions: 330000000 cycles: 150616050 heartbeat IPC: 1.175 cumulative IPC: 1.238 (Simulation time: 03 hr 21 min 09 sec)
Heartbeat CPU 6 instructions: 490000000 cycles: 150778497 heartbeat IPC: 2.745 cumulative IPC: 2.856 (Simulation time: 03 hr 21 min 21 sec)
Heartbeat CPU 4 instructions: 310000001 cycles: 150817069 heartbeat IPC: 0.8391 cumulative IPC: 1.034 (Simulation time: 03 hr 21 min 24 sec)
Simulation finished CPU 5 instructions: 200000000 cycles: 100264252 cumulative IPC: 1.995 (Simulation time: 03 hr 23 min 00 sec)
Heartbeat CPU 5 instructions: 410000002 cycles: 153116482 heartbeat IPC: 2.331 cumulative IPC: 1.999 (Simulation time: 03 hr 24 min 02 sec)
Simulation finished CPU 1 instructions: 200000001 cycles: 102374498 cumulative IPC: 1.954 (Simulation time: 03 hr 25 min 24 sec)
Heartbeat CPU 6 instructions: 500000000 cycles: 154732407 heartbeat IPC: 2.529 cumulative IPC: 2.843 (Simulation time: 03 hr 25 min 51 sec)
Heartbeat CPU 1 instructions: 410000000 cycles: 155441888 heartbeat IPC: 1.974 cumulative IPC: 1.954 (Simulation time: 03 hr 26 min 39 sec)
Heartbeat CPU 7 instructions: 320000003 cycles: 156631779 heartbeat IPC: 1.002 cumulative IPC: 1.072 (Simulation time: 03 hr 27 min 59 sec)
Heartbeat CPU 5 instructions: 420000000 cycles: 157498422 heartbeat IPC: 2.282 cumulative IPC: 2.011 (Simulation time: 03 hr 28 min 55 sec)
Heartbeat CPU 0 instructions: 340000003 cycles: 158554348 heartbeat IPC: 1.26 cumulative IPC: 1.24 (Simulation time: 03 hr 29 min 59 sec)
Heartbeat CPU 2 instructions: 320000002 cycles: 159040085 heartbeat IPC: 1.073 cumulative IPC: 1.121 (Simulation time: 03 hr 30 min 29 sec)
Heartbeat CPU 3 instructions: 320000003 cycles: 159946448 heartbeat IPC: 0.9486 cumulative IPC: 1.039 (Simulation time: 03 hr 31 min 25 sec)
Heartbeat CPU 1 instructions: 420000003 cycles: 160548550 heartbeat IPC: 1.958 cumulative IPC: 1.954 (Simulation time: 03 hr 32 min 03 sec)
Heartbeat CPU 4 instructions: 320000000 cycles: 161286268 heartbeat IPC: 0.9552 cumulative IPC: 1.026 (Simulation time: 03 hr 32 min 49 sec)
Heartbeat CPU 5 instructions: 430000001 cycles: 161861211 heartbeat IPC: 2.292 cumulative IPC: 2.022 (Simulation time: 03 hr 33 min 26 sec)
Heartbeat CPU 6 instructions: 510000003 cycles: 165321709 heartbeat IPC: 0.9443 cumulative IPC: 2.666 (Simulation time: 03 hr 37 min 06 sec)
Heartbeat CPU 1 instructions: 430000002 cycles: 165624634 heartbeat IPC: 1.97 cumulative IPC: 1.955 (Simulation time: 03 hr 37 min 26 sec)
Heartbeat CPU 5 instructions: 440000002 cycles: 166211467 heartbeat IPC: 2.299 cumulative IPC: 2.032 (Simulation time: 03 hr 38 min 03 sec)
Heartbeat CPU 0 instructions: 350000000 cycles: 166551519 heartbeat IPC: 1.25 cumulative IPC: 1.241 (Simulation time: 03 hr 38 min 24 sec)
Heartbeat CPU 7 instructions: 330000003 cycles: 166796030 heartbeat IPC: 0.9838 cumulative IPC: 1.064 (Simulation time: 03 hr 38 min 40 sec)
Heartbeat CPU 2 instructions: 330000002 cycles: 168400333 heartbeat IPC: 1.068 cumulative IPC: 1.116 (Simulation time: 03 hr 40 min 21 sec)
Heartbeat CPU 3 instructions: 330000001 cycles: 170456019 heartbeat IPC: 0.9515 cumulative IPC: 1.031 (Simulation time: 03 hr 42 min 28 sec)
Heartbeat CPU 1 instructions: 440000003 cycles: 170687277 heartbeat IPC: 1.975 cumulative IPC: 1.956 (Simulation time: 03 hr 42 min 42 sec)
Heartbeat CPU 5 instructions: 450000003 cycles: 170708958 heartbeat IPC: 2.223 cumulative IPC: 2.04 (Simulation time: 03 hr 42 min 43 sec)
Heartbeat CPU 4 instructions: 330000001 cycles: 172246466 heartbeat IPC: 0.9124 cumulative IPC: 1.016 (Simulation time: 03 hr 44 min 20 sec)
Heartbeat CPU 0 instructions: 360000002 cycles: 174873570 heartbeat IPC: 1.202 cumulative IPC: 1.238 (Simulation time: 03 hr 47 min 15 sec)
Heartbeat CPU 5 instructions: 460000001 cycles: 175004578 heartbeat IPC: 2.328 cumulative IPC: 2.05 (Simulation time: 03 hr 47 min 24 sec)
Heartbeat CPU 1 instructions: 450000000 cycles: 175753684 heartbeat IPC: 1.974 cumulative IPC: 1.956 (Simulation time: 03 hr 48 min 15 sec)
Heartbeat CPU 6 instructions: 520000003 cycles: 176216303 heartbeat IPC: 0.9179 cumulative IPC: 2.512 (Simulation time: 03 hr 48 min 45 sec)
Heartbeat CPU 7 instructions: 340000001 cycles: 177210280 heartbeat IPC: 0.9602 cumulative IPC: 1.055 (Simulation time: 03 hr 49 min 53 sec)
Heartbeat CPU 2 instructions: 340000001 cycles: 177915070 heartbeat IPC: 1.051 cumulative IPC: 1.111 (Simulation time: 03 hr 50 min 39 sec)
Heartbeat CPU 5 instructions: 470000001 cycles: 179115518 heartbeat IPC: 2.433 cumulative IPC: 2.062 (Simulation time: 03 hr 52 min 01 sec)
Heartbeat CPU 1 instructions: 460000001 cycles: 180841037 heartbeat IPC: 1.966 cumulative IPC: 1.957 (Simulation time: 03 hr 53 min 55 sec)
Heartbeat CPU 3 instructions: 340000003 cycles: 180935161 heartbeat IPC: 0.9543 cumulative IPC: 1.025 (Simulation time: 03 hr 54 min 02 sec)
Heartbeat CPU 6 instructions: 530000003 cycles: 181930339 heartbeat IPC: 1.75 cumulative IPC: 2.479 (Simulation time: 03 hr 55 min 09 sec)
Heartbeat CPU 4 instructions: 340000002 cycles: 182126399 heartbeat IPC: 1.012 cumulative IPC: 1.016 (Simulation time: 03 hr 55 min 21 sec)
Heartbeat CPU 0 instructions: 370000003 cycles: 183284150 heartbeat IPC: 1.189 cumulative IPC: 1.235 (Simulation time: 03 hr 56 min 40 sec)
Heartbeat CPU 5 instructions: 480000003 cycles: 183465234 heartbeat IPC: 2.299 cumulative IPC: 2.07 (Simulation time: 03 hr 56 min 51 sec)
Heartbeat CPU 1 instructions: 470000001 cycles: 185888188 heartbeat IPC: 1.981 cumulative IPC: 1.958 (Simulation time: 03 hr 59 min 25 sec)
Heartbeat CPU 2 instructions: 350000002 cycles: 187403074 heartbeat IPC: 1.054 cumulative IPC: 1.107 (Simulation time: 04 hr 00 min 54 sec)
Heartbeat CPU 7 instructions: 350000002 cycles: 187671184 heartbeat IPC: 0.9559 cumulative IPC: 1.048 (Simulation time: 04 hr 01 min 10 sec)
Heartbeat CPU 5 instructions: 490000000 cycles: 189600761 heartbeat IPC: 1.63 cumulative IPC: 2.05 (Simulation time: 04 hr 03 min 12 sec)
Heartbeat CPU 1 instructions: 480000003 cycles: 190958359 heartbeat IPC: 1.972 cumulative IPC: 1.958 (Simulation time: 04 hr 04 min 35 sec)
Heartbeat CPU 0 instructions: 380000003 cycles: 191276553 heartbeat IPC: 1.251 cumulative IPC: 1.236 (Simulation time: 04 hr 04 min 54 sec)
Heartbeat CPU 3 instructions: 350000002 cycles: 191863848 heartbeat IPC: 0.915 cumulative IPC: 1.016 (Simulation time: 04 hr 05 min 31 sec)
Heartbeat CPU 6 instructions: 540000000 cycles: 192533456 heartbeat IPC: 0.9431 cumulative IPC: 2.363 (Simulation time: 04 hr 06 min 13 sec)
Heartbeat CPU 4 instructions: 350000002 cycles: 193082209 heartbeat IPC: 0.9128 cumulative IPC: 1.008 (Simulation time: 04 hr 06 min 46 sec)
Heartbeat CPU 5 instructions: 500000001 cycles: 195891808 heartbeat IPC: 1.59 cumulative IPC: 2.03 (Simulation time: 04 hr 09 min 39 sec)
Heartbeat CPU 1 instructions: 490000003 cycles: 196026150 heartbeat IPC: 1.973 cumulative IPC: 1.959 (Simulation time: 04 hr 09 min 47 sec)
Heartbeat CPU 2 instructions: 360000002 cycles: 196948738 heartbeat IPC: 1.048 cumulative IPC: 1.103 (Simulation time: 04 hr 10 min 44 sec)
Heartbeat CPU 7 instructions: 360000000 cycles: 198175903 heartbeat IPC: 0.952 cumulative IPC: 1.041 (Simulation time: 04 hr 12 min 01 sec)
Heartbeat CPU 0 instructions: 390000000 cycles: 199461639 heartbeat IPC: 1.222 cumulative IPC: 1.235 (Simulation time: 04 hr 13 min 20 sec)
Heartbeat CPU 1 instructions: 500000000 cycles: 201117802 heartbeat IPC: 1.964 cumulative IPC: 1.959 (Simulation time: 04 hr 15 min 01 sec)
Heartbeat CPU 5 instructions: 510000003 cycles: 201997843 heartbeat IPC: 1.638 cumulative IPC: 2.014 (Simulation time: 04 hr 15 min 56 sec)
Heartbeat CPU 3 instructions: 360000002 cycles: 202783657 heartbeat IPC: 0.9158 cumulative IPC: 1.009 (Simulation time: 04 hr 16 min 45 sec)
Heartbeat CPU 4 instructions: 360000002 cycles: 204301315 heartbeat IPC: 0.8913 cumulative IPC: 0.9991 (Simulation time: 04 hr 18 min 18 sec)
Heartbeat CPU 6 instructions: 550000001 cycles: 204739414 heartbeat IPC: 0.8193 cumulative IPC: 2.24 (Simulation time: 04 hr 18 min 46 sec)
Heartbeat CPU 1 instructions: 510000001 cycles: 206221933 heartbeat IPC: 1.959 cumulative IPC: 1.959 (Simulation time: 04 hr 20 min 24 sec)
Heartbeat CPU 2 instructions: 370000000 cycles: 206561609 heartbeat IPC: 1.04 cumulative IPC: 1.1 (Simulation time: 04 hr 20 min 47 sec)
Heartbeat CPU 0 instructions: 400000003 cycles: 207741748 heartbeat IPC: 1.208 cumulative IPC: 1.234 (Simulation time: 04 hr 22 min 03 sec)
Heartbeat CPU 5 instructions: 520000003 cycles: 208073406 heartbeat IPC: 1.646 cumulative IPC: 2 (Simulation time: 04 hr 22 min 25 sec)
Heartbeat CPU 6 instructions: 560000000 cycles: 208756116 heartbeat IPC: 2.49 cumulative IPC: 2.246 (Simulation time: 04 hr 23 min 10 sec)
Heartbeat CPU 7 instructions: 370000000 cycles: 208858001 heartbeat IPC: 0.9361 cumulative IPC: 1.034 (Simulation time: 04 hr 23 min 17 sec)
Heartbeat CPU 1 instructions: 520000001 cycles: 211364947 heartbeat IPC: 1.944 cumulative IPC: 1.958 (Simulation time: 04 hr 26 min 03 sec)
Heartbeat CPU 6 instructions: 570000003 cycles: 212511321 heartbeat IPC: 2.663 cumulative IPC: 2.256 (Simulation time: 04 hr 27 min 19 sec)
Heartbeat CPU 3 instructions: 370000000 cycles: 213657940 heartbeat IPC: 0.9196 cumulative IPC: 1.003 (Simulation time: 04 hr 28 min 34 sec)
Heartbeat CPU 5 instructions: 530000001 cycles: 214050305 heartbeat IPC: 1.673 cumulative IPC: 1.988 (Simulation time: 04 hr 29 min 01 sec)
Simulation finished CPU 0 instructions: 200000002 cycles: 162447972 cumulative IPC: 1.231 (Simulation time: 04 hr 29 min 24 sec)
Heartbeat CPU 4 instructions: 370000002 cycles: 214696857 heartbeat IPC: 0.962 cumulative IPC: 0.9967 (Simulation time: 04 hr 29 min 44 sec)
Heartbeat CPU 2 instructions: 380000000 cycles: 216021929 heartbeat IPC: 1.057 cumulative IPC: 1.097 (Simulation time: 04 hr 31 min 12 sec)
Heartbeat CPU 0 instructions: 410000003 cycles: 216237484 heartbeat IPC: 1.177 cumulative IPC: 1.231 (Simulation time: 04 hr 31 min 26 sec)
Heartbeat CPU 1 instructions: 530000000 cycles: 216485786 heartbeat IPC: 1.953 cumulative IPC: 1.958 (Simulation time: 04 hr 31 min 42 sec)
Heartbeat CPU 6 instructions: 580000003 cycles: 216499041 heartbeat IPC: 2.508 cumulative IPC: 2.262 (Simulation time: 04 hr 31 min 43 sec)
Heartbeat CPU 7 instructions: 380000002 cycles: 219249109 heartbeat IPC: 0.9624 cumulative IPC: 1.029 (Simulation time: 04 hr 34 min 44 sec)
Heartbeat CPU 5 instructions: 540000001 cycles: 219925315 heartbeat IPC: 1.702 cumulative IPC: 1.978 (Simulation time: 04 hr 35 min 29 sec)
Heartbeat CPU 6 instructions: 590000002 cycles: 220554387 heartbeat IPC: 2.466 cumulative IPC: 2.267 (Simulation time: 04 hr 36 min 11 sec)
Heartbeat CPU 1 instructions: 540000000 cycles: 221613207 heartbeat IPC: 1.95 cumulative IPC: 1.958 (Simulation time: 04 hr 37 min 21 sec)
Heartbeat CPU 0 instructions: 420000002 cycles: 224142021 heartbeat IPC: 1.265 cumulative IPC: 1.232 (Simulation time: 04 hr 39 min 59 sec)
Heartbeat CPU 3 instructions: 380000000 cycles: 224474625 heartbeat IPC: 0.9245 cumulative IPC: 0.9981 (Simulation time: 04 hr 40 min 19 sec)
Heartbeat CPU 4 instructions: 380000002 cycles: 225515324 heartbeat IPC: 0.9243 cumulative IPC: 0.9922 (Simulation time: 04 hr 41 min 24 sec)
Heartbeat CPU 2 instructions: 390000003 cycles: 225534143 heartbeat IPC: 1.051 cumulative IPC: 1.095 (Simulation time: 04 hr 41 min 25 sec)
Heartbeat CPU 5 instructions: 550000001 cycles: 225850046 heartbeat IPC: 1.688 cumulative IPC: 1.968 (Simulation time: 04 hr 41 min 45 sec)
Heartbeat CPU 1 instructions: 550000000 cycles: 226767660 heartbeat IPC: 1.94 cumulative IPC: 1.957 (Simulation time: 04 hr 42 min 42 sec)
Heartbeat CPU 7 instructions: 390000000 cycles: 229492576 heartbeat IPC: 0.9762 cumulative IPC: 1.026 (Simulation time: 04 hr 45 min 33 sec)
Heartbeat CPU 6 instructions: 600000003 cycles: 231079520 heartbeat IPC: 0.9501 cumulative IPC: 2.19 (Simulation time: 04 hr 47 min 11 sec)
Heartbeat CPU 0 instructions: 430000003 cycles: 231578735 heartbeat IPC: 1.345 cumulative IPC: 1.237 (Simulation time: 04 hr 47 min 43 sec)
Heartbeat CPU 5 instructions: 560000002 cycles: 231725844 heartbeat IPC: 1.702 cumulative IPC: 1.959 (Simulation time: 04 hr 47 min 53 sec)
Heartbeat CPU 1 instructions: 560000002 cycles: 231919917 heartbeat IPC: 1.941 cumulative IPC: 1.957 (Simulation time: 04 hr 48 min 05 sec)
Heartbeat CPU 3 instructions: 390000002 cycles: 234799813 heartbeat IPC: 0.9685 cumulative IPC: 0.9964 (Simulation time: 04 hr 51 min 04 sec)
Heartbeat CPU 2 instructions: 400000003 cycles: 234949540 heartbeat IPC: 1.062 cumulative IPC: 1.093 (Simulation time: 04 hr 51 min 13 sec)
Simulation finished CPU 2 instructions: 200000003 cycles: 182995044 cumulative IPC: 1.093 (Simulation time: 04 hr 51 min 13 sec)
Heartbeat CPU 4 instructions: 390000000 cycles: 236086267 heartbeat IPC: 0.946 cumulative IPC: 0.9896 (Simulation time: 04 hr 52 min 25 sec)
Heartbeat CPU 1 instructions: 570000000 cycles: 237006334 heartbeat IPC: 1.966 cumulative IPC: 1.957 (Simulation time: 04 hr 53 min 22 sec)
Heartbeat CPU 5 instructions: 570000001 cycles: 237695432 heartbeat IPC: 1.675 cumulative IPC: 1.95 (Simulation time: 04 hr 54 min 05 sec)
Heartbeat CPU 0 instructions: 440000002 cycles: 239511866 heartbeat IPC: 1.261 cumulative IPC: 1.238 (Simulation time: 04 hr 55 min 55 sec)
Heartbeat CPU 7 instructions: 400000002 cycles: 239915305 heartbeat IPC: 0.9594 cumulative IPC: 1.023 (Simulation time: 04 hr 56 min 20 sec)
Heartbeat CPU 1 instructions: 580000001 cycles: 242123474 heartbeat IPC: 1.954 cumulative IPC: 1.957 (Simulation time: 04 hr 58 min 35 sec)
Heartbeat CPU 5 instructions: 580000000 cycles: 243641183 heartbeat IPC: 1.682 cumulative IPC: 1.942 (Simulation time: 05 hr 00 min 08 sec)
Heartbeat CPU 2 instructions: 410000000 cycles: 244604635 heartbeat IPC: 1.036 cumulative IPC: 1.09 (Simulation time: 05 hr 01 min 09 sec)
Heartbeat CPU 6 instructions: 610000000 cycles: 244742779 heartbeat IPC: 0.7319 cumulative IPC: 2.086 (Simulation time: 05 hr 01 min 18 sec)
Heartbeat CPU 3 instructions: 400000000 cycles: 245923854 heartbeat IPC: 0.899 cumulative IPC: 0.9908 (Simulation time: 05 hr 02 min 32 sec)
Heartbeat CPU 4 instructions: 400000002 cycles: 246805426 heartbeat IPC: 0.9329 cumulative IPC: 0.9865 (Simulation time: 05 hr 03 min 28 sec)
Heartbeat CPU 1 instructions: 590000002 cycles: 247229028 heartbeat IPC: 1.959 cumulative IPC: 1.957 (Simulation time: 05 hr 03 min 54 sec)
Heartbeat CPU 0 instructions: 450000003 cycles: 248089954 heartbeat IPC: 1.166 cumulative IPC: 1.235 (Simulation time: 05 hr 04 min 46 sec)
Simulation finished CPU 7 instructions: 200000000 cycles: 196294359 cumulative IPC: 1.019 (Simulation time: 05 hr 04 min 56 sec)
Heartbeat CPU 5 instructions: 590000000 cycles: 249603179 heartbeat IPC: 1.677 cumulative IPC: 1.934 (Simulation time: 05 hr 06 min 21 sec)
Heartbeat CPU 7 instructions: 410000000 cycles: 250614432 heartbeat IPC: 0.9347 cumulative IPC: 1.018 (Simulation time: 05 hr 07 min 23 sec)
Heartbeat CPU 1 instructions: 600000001 cycles: 252331248 heartbeat IPC: 1.96 cumulative IPC: 1.957 (Simulation time: 05 hr 09 min 10 sec)
Heartbeat CPU 2 instructions: 420000002 cycles: 254214080 heartbeat IPC: 1.041 cumulative IPC: 1.088 (Simulation time: 05 hr 11 min 07 sec)
Simulation finished CPU 3 instructions: 200000002 cycles: 202582775 cumulative IPC: 0.9873 (Simulation time: 05 hr 11 min 27 sec)
Simulation finished CPU 4 instructions: 200000000 cycles: 203278595 cumulative IPC: 0.9839 (Simulation time: 05 hr 12 min 10 sec)
Simulation complete CPU 0 instructions: 250515268 cycles: 203278595 cumulative IPC: 1.232 (Simulation time: 05 hr 12 min 10 sec)
Simulation complete CPU 1 instructions: 397840436 cycles: 203278595 cumulative IPC: 1.957 (Simulation time: 05 hr 12 min 10 sec)
Simulation complete CPU 2 instructions: 221036006 cycles: 203278595 cumulative IPC: 1.087 (Simulation time: 05 hr 12 min 10 sec)
Simulation complete CPU 3 instructions: 200614417 cycles: 203278595 cumulative IPC: 0.9869 (Simulation time: 05 hr 12 min 10 sec)
Simulation complete CPU 4 instructions: 200000000 cycles: 203278595 cumulative IPC: 0.9839 (Simulation time: 05 hr 12 min 10 sec)
Simulation complete CPU 5 instructions: 392030899 cycles: 203278595 cumulative IPC: 1.929 (Simulation time: 05 hr 12 min 10 sec)
Simulation complete CPU 6 instructions: 410664841 cycles: 203278595 cumulative IPC: 2.02 (Simulation time: 05 hr 12 min 10 sec)
Simulation complete CPU 7 instructions: 206540534 cycles: 203278595 cumulative IPC: 1.016 (Simulation time: 05 hr 12 min 10 sec)

ChampSim completed all CPUs

=== Simulation ===
CPU 0 runs /public/champsim/dp3_traces/631.deepsjeng_s-928B.champsimtrace.xzCPU 1 runs /public/champsim/dp3_traces/644.nab_s-5853B.champsimtrace.xzCPU 2 runs /public/champsim/dp3_traces/607.cactuBSSN_s-2421B.champsimtrace.xzCPU 3 runs /public/champsim/dp3_traces/649.fotonik3d_s-1176B.champsimtrace.xzCPU 4 runs /public/champsim/dp3_traces/602.gcc_s-734B.champsimtrace.xzCPU 5 runs /public/champsim/dp3_traces/621.wrf_s-575B.champsimtrace.xzCPU 6 runs /public/champsim/dp3_traces/600.perlbench_s-210B.champsimtrace.xzCPU 7 runs /public/champsim/dp3_traces/649.fotonik3d_s-1176B.champsimtrace.xz
Total Simulation Statistics (not including warmup)

CPU 0 cumulative IPC: 1.232 instructions: 250515268 cycles: 203278595
CPU 0 Branch Prediction Accuracy: 95.67% MPKI: 6.398 Average ROB Occupancy at Mispredict: 72.03
Branch type MPKI
BRANCH_DIRECT_JUMP: 0.0177
BRANCH_INDIRECT: 0.00893
BRANCH_CONDITIONAL: 5.83
BRANCH_DIRECT_CALL: 0.021
BRANCH_INDIRECT_CALL: 0
BRANCH_RETURN: 0.517


CPU 1 cumulative IPC: 1.957 instructions: 397840436 cycles: 203278595
CPU 1 Branch Prediction Accuracy: 88.56% MPKI: 11.07 Average ROB Occupancy at Mispredict: 67.82
Branch type MPKI
BRANCH_DIRECT_JUMP: 0.000133
BRANCH_INDIRECT: 0
BRANCH_CONDITIONAL: 5.54
BRANCH_DIRECT_CALL: 2.51e-06
BRANCH_INDIRECT_CALL: 0
BRANCH_RETURN: 5.53


CPU 2 cumulative IPC: 1.087 instructions: 221036006 cycles: 203278595
CPU 2 Branch Prediction Accuracy: 99.85% MPKI: 0.001796 Average ROB Occupancy at Mispredict: 369
Branch type MPKI
BRANCH_DIRECT_JUMP: 0
BRANCH_INDIRECT: 0
BRANCH_CONDITIONAL: 0.0018
BRANCH_DIRECT_CALL: 0
BRANCH_INDIRECT_CALL: 0
BRANCH_RETURN: 0


CPU 3 cumulative IPC: 0.9869 instructions: 200614417 cycles: 203278595
CPU 3 Branch Prediction Accuracy: 99.2% MPKI: 0.1597 Average ROB Occupancy at Mispredict: 57.85
Branch type MPKI
BRANCH_DIRECT_JUMP: 0.000444
BRANCH_INDIRECT: 0
BRANCH_CONDITIONAL: 0.119
BRANCH_DIRECT_CALL: 7.98e-05
BRANCH_INDIRECT_CALL: 0
BRANCH_RETURN: 0.04


CPU 4 cumulative IPC: 0.9839 instructions: 200000000 cycles: 203278595
CPU 4 Branch Prediction Accuracy: 99.86% MPKI: 0.3227 Average ROB Occupancy at Mispredict: 136.7
Branch type MPKI
BRANCH_DIRECT_JUMP: 0.101
BRANCH_INDIRECT: 0
BRANCH_CONDITIONAL: 0.146
BRANCH_DIRECT_CALL: 0.0759
BRANCH_INDIRECT_CALL: 5e-06
BRANCH_RETURN: 0


CPU 5 cumulative IPC: 1.929 instructions: 392030899 cycles: 203278595
CPU 5 Branch Prediction Accuracy: 97.24% MPKI: 3.871 Average ROB Occupancy at Mispredict: 103.7
Branch type MPKI
BRANCH_DIRECT_JUMP: 0.000546
BRANCH_INDIRECT: 1.53e-05
BRANCH_CONDITIONAL: 3.48
BRANCH_DIRECT_CALL: 0.00299
BRANCH_INDIRECT_CALL: 0
BRANCH_RETURN: 0.391


CPU 6 cumulative IPC: 2.02 instructions: 410664841 cycles: 203278595
CPU 6 Branch Prediction Accuracy: 98.51% MPKI: 2.3 Average ROB Occupancy at Mispredict: 98.63
Branch type MPKI
BRANCH_DIRECT_JUMP: 0.0575
BRANCH_INDIRECT: 0.365
BRANCH_CONDITIONAL: 1.63
BRANCH_DIRECT_CALL: 0.0162
BRANCH_INDIRECT_CALL: 0.209
BRANCH_RETURN: 0.0202


CPU 7 cumulative IPC: 1.016 instructions: 206540534 cycles: 203278595
CPU 7 Branch Prediction Accuracy: 99.22% MPKI: 0.1553 Average ROB Occupancy at Mispredict: 58.29
Branch type MPKI
BRANCH_DIRECT_JUMP: 0.000431
BRANCH_INDIRECT: 0
BRANCH_CONDITIONAL: 0.116
BRANCH_DIRECT_CALL: 7.75e-05
BRANCH_INDIRECT_CALL: 0
BRANCH_RETURN: 0.0388

cpu0 INVINCIBLE ACTIVATED: 12531 FREED: 9817
LLC LOAD         IN CARTEL ACCESSES:         28 BLOCKED ACCESSES:         66
LLC RFO          IN CARTEL ACCESSES:          2 BLOCKED ACCESSES:          5
LLC PREFETCH     IN CARTEL ACCESSES:          1 BLOCKED ACCESSES:          3
LLC WRITE        IN CARTEL ACCESSES:        276 BLOCKED ACCESSES:         70
LLC TRANSLATION  IN CARTEL ACCESSES:         52 BLOCKED ACCESSES:         72
LLC TOTAL       IN CARTEL ACCESS:        359 IN CARTEL HIT:         57 IN CARTEL MISS:        302
LLC LOAD         IN CARTEL ACCESS:         28 IN CARTEL HIT:          1 IN CARTEL MISS:         27
LLC RFO          IN CARTEL ACCESS:          2 IN CARTEL HIT:          2 IN CARTEL MISS:          0
LLC PREFETCH     IN CARTEL ACCESS:          1 IN CARTEL HIT:          1 IN CARTEL MISS:          0
LLC WRITE        IN CARTEL ACCESS:        276 IN CARTEL HIT:         53 IN CARTEL MISS:        223
LLC TRANSLATION  IN CARTEL ACCESS:         52 IN CARTEL HIT:          0 IN CARTEL MISS:         52
LLC TOTAL        ACCESS:     187621 HIT:       2764 MISS:     184857
LLC LOAD         ACCESS:      71563 HIT:        331 MISS:      71232
LLC RFO          ACCESS:       2516 HIT:        503 MISS:       2013
LLC PREFETCH     ACCESS:       1874 HIT:         69 MISS:       1805
LLC WRITE        ACCESS:      51041 HIT:       1852 MISS:      49189
LLC TRANSLATION  ACCESS:      60627 HIT:          9 MISS:      60618
LLC PREFETCH REQUESTED:          0 ISSUED:          0 USEFUL:          0 USELESS:          0
LLC AVERAGE MISS LATENCY: 626.8 cycles
cpu1 INVINCIBLE ACTIVATED: 6482 FREED: 5742
LLC LOAD         IN CARTEL ACCESSES:          9 BLOCKED ACCESSES:         23
LLC RFO          IN CARTEL ACCESSES:          0 BLOCKED ACCESSES:          0
LLC PREFETCH     IN CARTEL ACCESSES:         21 BLOCKED ACCESSES:         92
LLC WRITE        IN CARTEL ACCESSES:          6 BLOCKED ACCESSES:          8
LLC TRANSLATION  IN CARTEL ACCESSES:          1 BLOCKED ACCESSES:          3
LLC TOTAL       IN CARTEL ACCESS:         37 IN CARTEL HIT:          5 IN CARTEL MISS:         32
LLC LOAD         IN CARTEL ACCESS:          9 IN CARTEL HIT:          2 IN CARTEL MISS:          7
LLC RFO          IN CARTEL ACCESS:          0 IN CARTEL HIT:          0 IN CARTEL MISS:          0
LLC PREFETCH     IN CARTEL ACCESS:         21 IN CARTEL HIT:          3 IN CARTEL MISS:         18
LLC WRITE        IN CARTEL ACCESS:          6 IN CARTEL HIT:          0 IN CARTEL MISS:          6
LLC TRANSLATION  IN CARTEL ACCESS:          1 IN CARTEL HIT:          0 IN CARTEL MISS:          1
LLC TOTAL        ACCESS:      90177 HIT:        391 MISS:      89786
LLC LOAD         ACCESS:      12322 HIT:        158 MISS:      12164
LLC RFO          ACCESS:        236 HIT:         45 MISS:        191
LLC PREFETCH     ACCESS:      73283 HIT:        176 MISS:      73107
LLC WRITE        ACCESS:       3206 HIT:         12 MISS:       3194
LLC TRANSLATION  ACCESS:       1130 HIT:          0 MISS:       1130
LLC PREFETCH REQUESTED:          0 ISSUED:          0 USEFUL:          0 USELESS:          0
LLC AVERAGE MISS LATENCY: 626.8 cycles
cpu2 INVINCIBLE ACTIVATED: 120949 FREED: 136150
LLC LOAD         IN CARTEL ACCESSES:       7296 BLOCKED ACCESSES:         76
LLC RFO          IN CARTEL ACCESSES:         31 BLOCKED ACCESSES:          0
LLC PREFETCH     IN CARTEL ACCESSES:          1 BLOCKED ACCESSES:          0
LLC WRITE        IN CARTEL ACCESSES:       1492 BLOCKED ACCESSES:          0
LLC TRANSLATION  IN CARTEL ACCESSES:         72 BLOCKED ACCESSES:          1
LLC TOTAL       IN CARTEL ACCESS:       8892 IN CARTEL HIT:       4632 IN CARTEL MISS:       4260
LLC LOAD         IN CARTEL ACCESS:       7296 IN CARTEL HIT:       3077 IN CARTEL MISS:       4219
LLC RFO          IN CARTEL ACCESS:         31 IN CARTEL HIT:         31 IN CARTEL MISS:          0
LLC PREFETCH     IN CARTEL ACCESS:          1 IN CARTEL HIT:          1 IN CARTEL MISS:          0
LLC WRITE        IN CARTEL ACCESS:       1492 IN CARTEL HIT:       1492 IN CARTEL MISS:          0
LLC TRANSLATION  IN CARTEL ACCESS:         72 IN CARTEL HIT:         31 IN CARTEL MISS:         41
LLC TOTAL        ACCESS:    2530485 HIT:     671716 MISS:    1858769
LLC LOAD         ACCESS:    2277017 HIT:     477204 MISS:    1799813
LLC RFO          ACCESS:       1210 HIT:       1208 MISS:          2
LLC PREFETCH     ACCESS:       2205 HIT:       1286 MISS:        919
LLC WRITE        ACCESS:     216336 HIT:     182523 MISS:      33813
LLC TRANSLATION  ACCESS:      33717 HIT:       9495 MISS:      24222
LLC PREFETCH REQUESTED:          0 ISSUED:          0 USEFUL:          0 USELESS:          0
LLC AVERAGE MISS LATENCY: 626.8 cycles
cpu3 INVINCIBLE ACTIVATED: 121612 FREED: 131170
LLC LOAD         IN CARTEL ACCESSES:        400 BLOCKED ACCESSES:         12
LLC RFO          IN CARTEL ACCESSES:          4 BLOCKED ACCESSES:          0
LLC PREFETCH     IN CARTEL ACCESSES:       2454 BLOCKED ACCESSES:         44
LLC WRITE        IN CARTEL ACCESSES:      10594 BLOCKED ACCESSES:          0
LLC TRANSLATION  IN CARTEL ACCESSES:          2 BLOCKED ACCESSES:          0
LLC TOTAL       IN CARTEL ACCESS:      13454 IN CARTEL HIT:      11053 IN CARTEL MISS:       2401
LLC LOAD         IN CARTEL ACCESS:        400 IN CARTEL HIT:         57 IN CARTEL MISS:        343
LLC RFO          IN CARTEL ACCESS:          4 IN CARTEL HIT:          4 IN CARTEL MISS:          0
LLC PREFETCH     IN CARTEL ACCESS:       2454 IN CARTEL HIT:        400 IN CARTEL MISS:       2054
LLC WRITE        IN CARTEL ACCESS:      10594 IN CARTEL HIT:      10590 IN CARTEL MISS:          4
LLC TRANSLATION  IN CARTEL ACCESS:          2 IN CARTEL HIT:          2 IN CARTEL MISS:          0
LLC TOTAL        ACCESS:    3610009 HIT:    1528750 MISS:    2081259
LLC LOAD         ACCESS:     268169 HIT:      11815 MISS:     256354
LLC RFO          ACCESS:        760 HIT:        712 MISS:         48
LLC PREFETCH     ACCESS:    1609784 HIT:      82025 MISS:    1527759
LLC WRITE        ACCESS:    1730916 HIT:    1434089 MISS:     296827
LLC TRANSLATION  ACCESS:        380 HIT:        109 MISS:        271
LLC PREFETCH REQUESTED:          0 ISSUED:          0 USEFUL:          0 USELESS:          0
LLC AVERAGE MISS LATENCY: 626.8 cycles
cpu4 INVINCIBLE ACTIVATED: 116563 FREED: 79143
LLC LOAD         IN CARTEL ACCESSES:        454 BLOCKED ACCESSES:         13
LLC RFO          IN CARTEL ACCESSES:          3 BLOCKED ACCESSES:          0
LLC PREFETCH     IN CARTEL ACCESSES:       3124 BLOCKED ACCESSES:        107
LLC WRITE        IN CARTEL ACCESSES:        134 BLOCKED ACCESSES:          0
LLC TRANSLATION  IN CARTEL ACCESSES:         56 BLOCKED ACCESSES:          0
LLC TOTAL       IN CARTEL ACCESS:       3771 IN CARTEL HIT:        163 IN CARTEL MISS:       3608
LLC LOAD         IN CARTEL ACCESS:        454 IN CARTEL HIT:         14 IN CARTEL MISS:        440
LLC RFO          IN CARTEL ACCESS:          3 IN CARTEL HIT:          0 IN CARTEL MISS:          3
LLC PREFETCH     IN CARTEL ACCESS:       3124 IN CARTEL HIT:         34 IN CARTEL MISS:       3090
LLC WRITE        IN CARTEL ACCESS:        134 IN CARTEL HIT:        111 IN CARTEL MISS:         23
LLC TRANSLATION  IN CARTEL ACCESS:         56 IN CARTEL HIT:          4 IN CARTEL MISS:         52
LLC TOTAL        ACCESS:    1703900 HIT:      19596 MISS:    1684304
LLC LOAD         ACCESS:     196356 HIT:       2071 MISS:     194285
LLC RFO          ACCESS:       1964 HIT:         15 MISS:       1949
LLC PREFETCH     ACCESS:    1464409 HIT:       2441 MISS:    1461968
LLC WRITE        ACCESS:      21184 HIT:      14021 MISS:       7163
LLC TRANSLATION  ACCESS:      19987 HIT:       1048 MISS:      18939
LLC PREFETCH REQUESTED:          0 ISSUED:          0 USEFUL:          0 USELESS:          0
LLC AVERAGE MISS LATENCY: 626.8 cycles
cpu5 INVINCIBLE ACTIVATED: 32736 FREED: 39008
LLC LOAD         IN CARTEL ACCESSES:        398 BLOCKED ACCESSES:         72
LLC RFO          IN CARTEL ACCESSES:        672 BLOCKED ACCESSES:         94
LLC PREFETCH     IN CARTEL ACCESSES:        496 BLOCKED ACCESSES:         60
LLC WRITE        IN CARTEL ACCESSES:       2126 BLOCKED ACCESSES:         50
LLC TRANSLATION  IN CARTEL ACCESSES:          6 BLOCKED ACCESSES:          0
LLC TOTAL       IN CARTEL ACCESS:       3698 IN CARTEL HIT:       2880 IN CARTEL MISS:        818
LLC LOAD         IN CARTEL ACCESS:        398 IN CARTEL HIT:        214 IN CARTEL MISS:        184
LLC RFO          IN CARTEL ACCESS:        672 IN CARTEL HIT:        353 IN CARTEL MISS:        319
LLC PREFETCH     IN CARTEL ACCESS:        496 IN CARTEL HIT:        337 IN CARTEL MISS:        159
LLC WRITE        IN CARTEL ACCESS:       2126 IN CARTEL HIT:       1973 IN CARTEL MISS:        153
LLC TRANSLATION  IN CARTEL ACCESS:          6 IN CARTEL HIT:          3 IN CARTEL MISS:          3
LLC TOTAL        ACCESS:     978469 HIT:     402162 MISS:     576307
LLC LOAD         ACCESS:     148435 HIT:      41026 MISS:     107409
LLC RFO          ACCESS:     325382 HIT:      94919 MISS:     230463
LLC PREFETCH     ACCESS:     147453 HIT:      20562 MISS:     126891
LLC WRITE        ACCESS:     355226 HIT:     245222 MISS:     110004
LLC TRANSLATION  ACCESS:       1973 HIT:        433 MISS:       1540
LLC PREFETCH REQUESTED:          0 ISSUED:          0 USEFUL:          0 USELESS:          0
LLC AVERAGE MISS LATENCY: 626.8 cycles
cpu6 INVINCIBLE ACTIVATED: 15712 FREED: 13882
LLC LOAD         IN CARTEL ACCESSES:        313 BLOCKED ACCESSES:        176
LLC RFO          IN CARTEL ACCESSES:         19 BLOCKED ACCESSES:         11
LLC PREFETCH     IN CARTEL ACCESSES:         39 BLOCKED ACCESSES:         25
LLC WRITE        IN CARTEL ACCESSES:        289 BLOCKED ACCESSES:         30
LLC TRANSLATION  IN CARTEL ACCESSES:         17 BLOCKED ACCESSES:         11
LLC TOTAL       IN CARTEL ACCESS:        677 IN CARTEL HIT:        351 IN CARTEL MISS:        326
LLC LOAD         IN CARTEL ACCESS:        313 IN CARTEL HIT:        104 IN CARTEL MISS:        209
LLC RFO          IN CARTEL ACCESS:         19 IN CARTEL HIT:         12 IN CARTEL MISS:          7
LLC PREFETCH     IN CARTEL ACCESS:         39 IN CARTEL HIT:         16 IN CARTEL MISS:         23
LLC WRITE        IN CARTEL ACCESS:        289 IN CARTEL HIT:        216 IN CARTEL MISS:         73
LLC TRANSLATION  IN CARTEL ACCESS:         17 IN CARTEL HIT:          3 IN CARTEL MISS:         14
LLC TOTAL        ACCESS:     296725 HIT:      43477 MISS:     253248
LLC LOAD         ACCESS:     185374 HIT:      18903 MISS:     166471
LLC RFO          ACCESS:      16497 HIT:       2457 MISS:      14040
LLC PREFETCH     ACCESS:      33188 HIT:       2616 MISS:      30572
LLC WRITE        ACCESS:      51788 HIT:      19113 MISS:      32675
LLC TRANSLATION  ACCESS:       9878 HIT:        388 MISS:       9490
LLC PREFETCH REQUESTED:          0 ISSUED:          0 USEFUL:          0 USELESS:          0
LLC AVERAGE MISS LATENCY: 626.8 cycles
cpu7 INVINCIBLE ACTIVATED: 125893 FREED: 137704
LLC LOAD         IN CARTEL ACCESSES:        312 BLOCKED ACCESSES:          4
LLC RFO          IN CARTEL ACCESSES:          2 BLOCKED ACCESSES:          0
LLC PREFETCH     IN CARTEL ACCESSES:       2668 BLOCKED ACCESSES:         28
LLC WRITE        IN CARTEL ACCESSES:      10995 BLOCKED ACCESSES:          0
LLC TRANSLATION  IN CARTEL ACCESSES:          2 BLOCKED ACCESSES:          0
LLC TOTAL       IN CARTEL ACCESS:      13979 IN CARTEL HIT:      11630 IN CARTEL MISS:       2349
LLC LOAD         IN CARTEL ACCESS:        312 IN CARTEL HIT:         74 IN CARTEL MISS:        238
LLC RFO          IN CARTEL ACCESS:          2 IN CARTEL HIT:          2 IN CARTEL MISS:          0
LLC PREFETCH     IN CARTEL ACCESS:       2668 IN CARTEL HIT:        561 IN CARTEL MISS:       2107
LLC WRITE        IN CARTEL ACCESS:      10995 IN CARTEL HIT:      10993 IN CARTEL MISS:          2
LLC TRANSLATION  IN CARTEL ACCESS:          2 IN CARTEL HIT:          0 IN CARTEL MISS:          2
LLC TOTAL        ACCESS:    3782954 HIT:    1643395 MISS:    2139559
LLC LOAD         ACCESS:     223110 HIT:      18707 MISS:     204403
LLC RFO          ACCESS:        495 HIT:        376 MISS:        119
LLC PREFETCH     ACCESS:    1776480 HIT:     143482 MISS:    1632998
LLC WRITE        ACCESS:    1782386 HIT:    1480631 MISS:     301755
LLC TRANSLATION  ACCESS:        483 HIT:        199 MISS:        284
LLC PREFETCH REQUESTED:          0 ISSUED:          0 USEFUL:          0 USELESS:          0
LLC AVERAGE MISS LATENCY: 626.8 cycles
cpu0_DTLB TOTAL        ACCESS:   48900502 HIT:   48635331 MISS:     265171
cpu0_DTLB LOAD         ACCESS:   48900502 HIT:   48635331 MISS:     265171
cpu0_DTLB RFO          ACCESS:          0 HIT:          0 MISS:          0
cpu0_DTLB PREFETCH     ACCESS:          0 HIT:          0 MISS:          0
cpu0_DTLB WRITE        ACCESS:          0 HIT:          0 MISS:          0
cpu0_DTLB TRANSLATION  ACCESS:          0 HIT:          0 MISS:          0
cpu0_DTLB PREFETCH REQUESTED:          0 ISSUED:          0 USEFUL:          0 USELESS:          0
cpu0_DTLB AVERAGE MISS LATENCY: 201.6 cycles
cpu0_DTLB TOTAL        ACCESS:          0 HIT:          0 MISS:          0
cpu0_DTLB LOAD         ACCESS:          0 HIT:          0 MISS:          0
cpu0_DTLB RFO          ACCESS:          0 HIT:          0 MISS:          0
cpu0_DTLB PREFETCH     ACCESS:          0 HIT:          0 MISS:          0
cpu0_DTLB WRITE        ACCESS:          0 HIT:          0 MISS:          0
cpu0_DTLB TRANSLATION  ACCESS:          0 HIT:          0 MISS:          0
cpu0_DTLB PREFETCH REQUESTED:          0 ISSUED:          0 USEFUL:          0 USELESS:          0
cpu0_DTLB AVERAGE MISS LATENCY: 201.6 cycles
cpu0_DTLB TOTAL        ACCESS:          0 HIT:          0 MISS:          0
cpu0_DTLB LOAD         ACCESS:          0 HIT:          0 MISS:          0
cpu0_DTLB RFO          ACCESS:          0 HIT:          0 MISS:          0
cpu0_DTLB PREFETCH     ACCESS:          0 HIT:          0 MISS:          0
cpu0_DTLB WRITE        ACCESS:          0 HIT:          0 MISS:          0
cpu0_DTLB TRANSLATION  ACCESS:          0 HIT:          0 MISS:          0
cpu0_DTLB PREFETCH REQUESTED:          0 ISSUED:          0 USEFUL:          0 USELESS:          0
cpu0_DTLB AVERAGE MISS LATENCY: 201.6 cycles
cpu0_DTLB TOTAL        ACCESS:          0 HIT:          0 MISS:          0
cpu0_DTLB LOAD         ACCESS:          0 HIT:          0 MISS:          0
cpu0_DTLB RFO          ACCESS:          0 HIT:          0 MISS:          0
cpu0_DTLB PREFETCH     ACCESS:          0 HIT:          0 MISS:          0
cpu0_DTLB WRITE        ACCESS:          0 HIT:          0 MISS:          0
cpu0_DTLB TRANSLATION  ACCESS:          0 HIT:          0 MISS:          0
cpu0_DTLB PREFETCH REQUESTED:          0 ISSUED:          0 USEFUL:          0 USELESS:          0
cpu0_DTLB AVERAGE MISS LATENCY: 201.6 cycles
cpu0_DTLB TOTAL        ACCESS:          0 HIT:          0 MISS:          0
cpu0_DTLB LOAD         ACCESS:          0 HIT:          0 MISS:          0
cpu0_DTLB RFO          ACCESS:          0 HIT:          0 MISS:          0
cpu0_DTLB PREFETCH     ACCESS:          0 HIT:          0 MISS:          0
cpu0_DTLB WRITE        ACCESS:          0 HIT:          0 MISS:          0
cpu0_DTLB TRANSLATION  ACCESS:          0 HIT:          0 MISS:          0
cpu0_DTLB PREFETCH REQUESTED:          0 ISSUED:          0 USEFUL:          0 USELESS:          0
cpu0_DTLB AVERAGE MISS LATENCY: 201.6 cycles
cpu0_DTLB TOTAL        ACCESS:          0 HIT:          0 MISS:          0
cpu0_DTLB LOAD         ACCESS:          0 HIT:          0 MISS:          0
cpu0_DTLB RFO          ACCESS:          0 HIT:          0 MISS:          0
cpu0_DTLB PREFETCH     ACCESS:          0 HIT:          0 MISS:          0
cpu0_DTLB WRITE        ACCESS:          0 HIT:          0 MISS:          0
cpu0_DTLB TRANSLATION  ACCESS:          0 HIT:          0 MISS:          0
cpu0_DTLB PREFETCH REQUESTED:          0 ISSUED:          0 USEFUL:          0 USELESS:          0
cpu0_DTLB AVERAGE MISS LATENCY: 201.6 cycles
cpu0_DTLB TOTAL        ACCESS:          0 HIT:          0 MISS:          0
cpu0_DTLB LOAD         ACCESS:          0 HIT:          0 MISS:          0
cpu0_DTLB RFO          ACCESS:          0 HIT:          0 MISS:          0
cpu0_DTLB PREFETCH     ACCESS:          0 HIT:          0 MISS:          0
cpu0_DTLB WRITE        ACCESS:          0 HIT:          0 MISS:          0
cpu0_DTLB TRANSLATION  ACCESS:          0 HIT:          0 MISS:          0
cpu0_DTLB PREFETCH REQUESTED:          0 ISSUED:          0 USEFUL:          0 USELESS:          0
cpu0_DTLB AVERAGE MISS LATENCY: 201.6 cycles
cpu0_DTLB TOTAL        ACCESS:          0 HIT:          0 MISS:          0
cpu0_DTLB LOAD         ACCESS:          0 HIT:          0 MISS:          0
cpu0_DTLB RFO          ACCESS:          0 HIT:          0 MISS:          0
cpu0_DTLB PREFETCH     ACCESS:          0 HIT:          0 MISS:          0
cpu0_DTLB WRITE        ACCESS:          0 HIT:          0 MISS:          0
cpu0_DTLB TRANSLATION  ACCESS:          0 HIT:          0 MISS:          0
cpu0_DTLB PREFETCH REQUESTED:          0 ISSUED:          0 USEFUL:          0 USELESS:          0
cpu0_DTLB AVERAGE MISS LATENCY: 201.6 cycles
cpu0_ITLB TOTAL        ACCESS:   16190339 HIT:   16190339 MISS:          0
cpu0_ITLB LOAD         ACCESS:   16190339 HIT:   16190339 MISS:          0
cpu0_ITLB RFO          ACCESS:          0 HIT:          0 MISS:          0
cpu0_ITLB PREFETCH     ACCESS:          0 HIT:          0 MISS:          0
cpu0_ITLB WRITE        ACCESS:          0 HIT:          0 MISS:          0
cpu0_ITLB TRANSLATION  ACCESS:          0 HIT:          0 MISS:          0
cpu0_ITLB PREFETCH REQUESTED:          0 ISSUED:          0 USEFUL:          0 USELESS:          0
cpu0_ITLB AVERAGE MISS LATENCY: -nan cycles
cpu0_ITLB TOTAL        ACCESS:          0 HIT:          0 MISS:          0
cpu0_ITLB LOAD         ACCESS:          0 HIT:          0 MISS:          0
cpu0_ITLB RFO          ACCESS:          0 HIT:          0 MISS:          0
cpu0_ITLB PREFETCH     ACCESS:          0 HIT:          0 MISS:          0
cpu0_ITLB WRITE        ACCESS:          0 HIT:          0 MISS:          0
cpu0_ITLB TRANSLATION  ACCESS:          0 HIT:          0 MISS:          0
cpu0_ITLB PREFETCH REQUESTED:          0 ISSUED:          0 USEFUL:          0 USELESS:          0
cpu0_ITLB AVERAGE MISS LATENCY: -nan cycles
cpu0_ITLB TOTAL        ACCESS:          0 HIT:          0 MISS:          0
cpu0_ITLB LOAD         ACCESS:          0 HIT:          0 MISS:          0
cpu0_ITLB RFO          ACCESS:          0 HIT:          0 MISS:          0
cpu0_ITLB PREFETCH     ACCESS:          0 HIT:          0 MISS:          0
cpu0_ITLB WRITE        ACCESS:          0 HIT:          0 MISS:          0
cpu0_ITLB TRANSLATION  ACCESS:          0 HIT:          0 MISS:          0
cpu0_ITLB PREFETCH REQUESTED:          0 ISSUED:          0 USEFUL:          0 USELESS:          0
cpu0_ITLB AVERAGE MISS LATENCY: -nan cycles
[...]
cpu7_ITLB PREFETCH REQUESTED:          0 ISSUED:          0 USEFUL:          0 USELESS:          0
cpu7_ITLB AVERAGE MISS LATENCY: 418.7 cycles
cpu7_ITLB TOTAL        ACCESS:       2680 HIT:       2657 MISS:         23
cpu7_ITLB LOAD         ACCESS:       2680 HIT:       2657 MISS:         23
cpu7_ITLB RFO          ACCESS:          0 HIT:          0 MISS:          0
cpu7_ITLB PREFETCH     ACCESS:          0 HIT:          0 MISS:          0
cpu7_ITLB WRITE        ACCESS:          0 HIT:          0 MISS:          0
cpu7_ITLB TRANSLATION  ACCESS:          0 HIT:          0 MISS:          0
cpu7_ITLB PREFETCH REQUESTED:          0 ISSUED:          0 USEFUL:          0 USELESS:          0
cpu7_ITLB AVERAGE MISS LATENCY: 418.7 cycles
cpu7_L1D TOTAL        ACCESS:          0 HIT:          0 MISS:          0
cpu7_L1D LOAD         ACCESS:          0 HIT:          0 MISS:          0
cpu7_L1D RFO          ACCESS:          0 HIT:          0 MISS:          0
cpu7_L1D PREFETCH     ACCESS:          0 HIT:          0 MISS:          0
cpu7_L1D WRITE        ACCESS:          0 HIT:          0 MISS:          0
cpu7_L1D TRANSLATION  ACCESS:          0 HIT:          0 MISS:          0
cpu7_L1D PREFETCH REQUESTED:    1272375 ISSUED:    1272256 USEFUL:     843325 USELESS:       1900
cpu7_L1D AVERAGE MISS LATENCY: 56.12 cycles
cpu7_L1D TOTAL        ACCESS:          0 HIT:          0 MISS:          0
cpu7_L1D LOAD         ACCESS:          0 HIT:          0 MISS:          0
cpu7_L1D RFO          ACCESS:          0 HIT:          0 MISS:          0
cpu7_L1D PREFETCH     ACCESS:          0 HIT:          0 MISS:          0
cpu7_L1D WRITE        ACCESS:          0 HIT:          0 MISS:          0
cpu7_L1D TRANSLATION  ACCESS:          0 HIT:          0 MISS:          0
cpu7_L1D PREFETCH REQUESTED:    1272375 ISSUED:    1272256 USEFUL:     843325 USELESS:       1900
cpu7_L1D AVERAGE MISS LATENCY: 56.12 cycles
cpu7_L1D TOTAL        ACCESS:          0 HIT:          0 MISS:          0
cpu7_L1D LOAD         ACCESS:          0 HIT:          0 MISS:          0
cpu7_L1D RFO          ACCESS:          0 HIT:          0 MISS:          0
cpu7_L1D PREFETCH     ACCESS:          0 HIT:          0 MISS:          0
cpu7_L1D WRITE        ACCESS:          0 HIT:          0 MISS:          0
cpu7_L1D TRANSLATION  ACCESS:          0 HIT:          0 MISS:          0
cpu7_L1D PREFETCH REQUESTED:    1272375 ISSUED:    1272256 USEFUL:     843325 USELESS:       1900
cpu7_L1D AVERAGE MISS LATENCY: 56.12 cycles
cpu7_L1D TOTAL        ACCESS:          0 HIT:          0 MISS:          0
cpu7_L1D LOAD         ACCESS:          0 HIT:          0 MISS:          0
cpu7_L1D RFO          ACCESS:          0 HIT:          0 MISS:          0
cpu7_L1D PREFETCH     ACCESS:          0 HIT:          0 MISS:          0
cpu7_L1D WRITE        ACCESS:          0 HIT:          0 MISS:          0
cpu7_L1D TRANSLATION  ACCESS:          0 HIT:          0 MISS:          0
cpu7_L1D PREFETCH REQUESTED:    1272375 ISSUED:    1272256 USEFUL:     843325 USELESS:       1900
cpu7_L1D AVERAGE MISS LATENCY: 56.12 cycles
cpu7_L1D TOTAL        ACCESS:          0 HIT:          0 MISS:          0
cpu7_L1D LOAD         ACCESS:          0 HIT:          0 MISS:          0
cpu7_L1D RFO          ACCESS:          0 HIT:          0 MISS:          0
cpu7_L1D PREFETCH     ACCESS:          0 HIT:          0 MISS:          0
cpu7_L1D WRITE        ACCESS:          0 HIT:          0 MISS:          0
cpu7_L1D TRANSLATION  ACCESS:          0 HIT:          0 MISS:          0
cpu7_L1D PREFETCH REQUESTED:    1272375 ISSUED:    1272256 USEFUL:     843325 USELESS:       1900
cpu7_L1D AVERAGE MISS LATENCY: 56.12 cycles
cpu7_L1D TOTAL        ACCESS:          0 HIT:          0 MISS:          0
cpu7_L1D LOAD         ACCESS:          0 HIT:          0 MISS:          0
cpu7_L1D RFO          ACCESS:          0 HIT:          0 MISS:          0
cpu7_L1D PREFETCH     ACCESS:          0 HIT:          0 MISS:          0
cpu7_L1D WRITE        ACCESS:          0 HIT:          0 MISS:          0
cpu7_L1D TRANSLATION  ACCESS:          0 HIT:          0 MISS:          0
cpu7_L1D PREFETCH REQUESTED:    1272375 ISSUED:    1272256 USEFUL:     843325 USELESS:       1900
cpu7_L1D AVERAGE MISS LATENCY: 56.12 cycles
cpu7_L1D TOTAL        ACCESS:          0 HIT:          0 MISS:          0
cpu7_L1D LOAD         ACCESS:          0 HIT:          0 MISS:          0
cpu7_L1D RFO          ACCESS:          0 HIT:          0 MISS:          0
cpu7_L1D PREFETCH     ACCESS:          0 HIT:          0 MISS:          0
cpu7_L1D WRITE        ACCESS:          0 HIT:          0 MISS:          0
cpu7_L1D TRANSLATION  ACCESS:          0 HIT:          0 MISS:          0
cpu7_L1D PREFETCH REQUESTED:    1272375 ISSUED:    1272256 USEFUL:     843325 USELESS:       1900
cpu7_L1D AVERAGE MISS LATENCY: 56.12 cycles
cpu7_L1D TOTAL        ACCESS:   64068357 HIT:   56034088 MISS:    8034269
cpu7_L1D LOAD         ACCESS:   48658060 HIT:   41562123 MISS:    7095937
cpu7_L1D RFO          ACCESS:          0 HIT:          0 MISS:          0
cpu7_L1D PREFETCH     ACCESS:    1231443 HIT:     312776 MISS:     918667
cpu7_L1D WRITE        ACCESS:   14151742 HIT:   14133172 MISS:      18570
cpu7_L1D TRANSLATION  ACCESS:      27112 HIT:      26017 MISS:       1095
cpu7_L1D PREFETCH REQUESTED:    1272375 ISSUED:    1272256 USEFUL:     843325 USELESS:       1900
cpu7_L1D AVERAGE MISS LATENCY: 56.12 cycles
cpu7_L1I TOTAL        ACCESS:          0 HIT:          0 MISS:          0
cpu7_L1I LOAD         ACCESS:          0 HIT:          0 MISS:          0
cpu7_L1I RFO          ACCESS:          0 HIT:          0 MISS:          0
cpu7_L1I PREFETCH     ACCESS:          0 HIT:          0 MISS:          0
cpu7_L1I WRITE        ACCESS:          0 HIT:          0 MISS:          0
cpu7_L1I TRANSLATION  ACCESS:          0 HIT:          0 MISS:          0
cpu7_L1I PREFETCH REQUESTED:          0 ISSUED:          0 USEFUL:          0 USELESS:          0
cpu7_L1I AVERAGE MISS LATENCY: 268.7 cycles
cpu7_L1I TOTAL        ACCESS:          0 HIT:          0 MISS:          0
cpu7_L1I LOAD         ACCESS:          0 HIT:          0 MISS:          0
cpu7_L1I RFO          ACCESS:          0 HIT:          0 MISS:          0
cpu7_L1I PREFETCH     ACCESS:          0 HIT:          0 MISS:          0
cpu7_L1I WRITE        ACCESS:          0 HIT:          0 MISS:          0
cpu7_L1I TRANSLATION  ACCESS:          0 HIT:          0 MISS:          0
cpu7_L1I PREFETCH REQUESTED:          0 ISSUED:          0 USEFUL:          0 USELESS:          0
cpu7_L1I AVERAGE MISS LATENCY: 268.7 cycles
cpu7_L1I TOTAL        ACCESS:          0 HIT:          0 MISS:          0
cpu7_L1I LOAD         ACCESS:          0 HIT:          0 MISS:          0
cpu7_L1I RFO          ACCESS:          0 HIT:          0 MISS:          0
cpu7_L1I PREFETCH     ACCESS:          0 HIT:          0 MISS:          0
cpu7_L1I WRITE        ACCESS:          0 HIT:          0 MISS:          0
cpu7_L1I TRANSLATION  ACCESS:          0 HIT:          0 MISS:          0
cpu7_L1I PREFETCH REQUESTED:          0 ISSUED:          0 USEFUL:          0 USELESS:          0
cpu7_L1I AVERAGE MISS LATENCY: 268.7 cycles
cpu7_L1I TOTAL        ACCESS:          0 HIT:          0 MISS:          0
cpu7_L1I LOAD         ACCESS:          0 HIT:          0 MISS:          0
cpu7_L1I RFO          ACCESS:          0 HIT:          0 MISS:          0
cpu7_L1I PREFETCH     ACCESS:          0 HIT:          0 MISS:          0
cpu7_L1I WRITE        ACCESS:          0 HIT:          0 MISS:          0
cpu7_L1I TRANSLATION  ACCESS:          0 HIT:          0 MISS:          0
cpu7_L1I PREFETCH REQUESTED:          0 ISSUED:          0 USEFUL:          0 USELESS:          0
cpu7_L1I AVERAGE MISS LATENCY: 268.7 cycles
cpu7_L1I TOTAL        ACCESS:          0 HIT:          0 MISS:          0
cpu7_L1I LOAD         ACCESS:          0 HIT:          0 MISS:          0
cpu7_L1I RFO          ACCESS:          0 HIT:          0 MISS:          0
cpu7_L1I PREFETCH     ACCESS:          0 HIT:          0 MISS:          0
cpu7_L1I WRITE        ACCESS:          0 HIT:          0 MISS:          0
cpu7_L1I TRANSLATION  ACCESS:          0 HIT:          0 MISS:          0
cpu7_L1I PREFETCH REQUESTED:          0 ISSUED:          0 USEFUL:          0 USELESS:          0
cpu7_L1I AVERAGE MISS LATENCY: 268.7 cycles
cpu7_L1I TOTAL        ACCESS:          0 HIT:          0 MISS:          0
cpu7_L1I LOAD         ACCESS:          0 HIT:          0 MISS:          0
cpu7_L1I RFO          ACCESS:          0 HIT:          0 MISS:          0
cpu7_L1I PREFETCH     ACCESS:          0 HIT:          0 MISS:          0
cpu7_L1I WRITE        ACCESS:          0 HIT:          0 MISS:          0
cpu7_L1I TRANSLATION  ACCESS:          0 HIT:          0 MISS:          0
cpu7_L1I PREFETCH REQUESTED:          0 ISSUED:          0 USEFUL:          0 USELESS:          0
cpu7_L1I AVERAGE MISS LATENCY: 268.7 cycles
cpu7_L1I TOTAL        ACCESS:          0 HIT:          0 MISS:          0
cpu7_L1I LOAD         ACCESS:          0 HIT:          0 MISS:          0
cpu7_L1I RFO          ACCESS:          0 HIT:          0 MISS:          0
cpu7_L1I PREFETCH     ACCESS:          0 HIT:          0 MISS:          0
cpu7_L1I WRITE        ACCESS:          0 HIT:          0 MISS:          0
cpu7_L1I TRANSLATION  ACCESS:          0 HIT:          0 MISS:          0
cpu7_L1I PREFETCH REQUESTED:          0 ISSUED:          0 USEFUL:          0 USELESS:          0
cpu7_L1I AVERAGE MISS LATENCY: 268.7 cycles
cpu7_L1I TOTAL        ACCESS:       3418 HIT:       3019 MISS:        399
cpu7_L1I LOAD         ACCESS:       3418 HIT:       3019 MISS:        399
cpu7_L1I RFO          ACCESS:          0 HIT:          0 MISS:          0
cpu7_L1I PREFETCH     ACCESS:          0 HIT:          0 MISS:          0
cpu7_L1I WRITE        ACCESS:          0 HIT:          0 MISS:          0
cpu7_L1I TRANSLATION  ACCESS:          0 HIT:          0 MISS:          0
cpu7_L1I PREFETCH REQUESTED:          0 ISSUED:          0 USEFUL:          0 USELESS:          0
cpu7_L1I AVERAGE MISS LATENCY: 268.7 cycles
cpu7_L2C TOTAL        ACCESS:          0 HIT:          0 MISS:          0
cpu7_L2C LOAD         ACCESS:          0 HIT:          0 MISS:          0
cpu7_L2C RFO          ACCESS:          0 HIT:          0 MISS:          0
cpu7_L2C PREFETCH     ACCESS:          0 HIT:          0 MISS:          0
cpu7_L2C WRITE        ACCESS:          0 HIT:          0 MISS:          0
cpu7_L2C TRANSLATION  ACCESS:          0 HIT:          0 MISS:          0
cpu7_L2C PREFETCH REQUESTED:    4800985 ISSUED:    4800982 USEFUL:    1564061 USELESS:       6526
cpu7_L2C AVERAGE MISS LATENCY: 173.4 cycles
cpu7_L2C TOTAL        ACCESS:          0 HIT:          0 MISS:          0
cpu7_L2C LOAD         ACCESS:          0 HIT:          0 MISS:          0
cpu7_L2C RFO          ACCESS:          0 HIT:          0 MISS:          0
cpu7_L2C PREFETCH     ACCESS:          0 HIT:          0 MISS:          0
cpu7_L2C WRITE        ACCESS:          0 HIT:          0 MISS:          0
cpu7_L2C TRANSLATION  ACCESS:          0 HIT:          0 MISS:          0
cpu7_L2C PREFETCH REQUESTED:    4800985 ISSUED:    4800982 USEFUL:    1564061 USELESS:       6526
cpu7_L2C AVERAGE MISS LATENCY: 173.4 cycles
cpu7_L2C TOTAL        ACCESS:          0 HIT:          0 MISS:          0
cpu7_L2C LOAD         ACCESS:          0 HIT:          0 MISS:          0
cpu7_L2C RFO          ACCESS:          0 HIT:          0 MISS:          0
cpu7_L2C PREFETCH     ACCESS:          0 HIT:          0 MISS:          0
cpu7_L2C WRITE        ACCESS:          0 HIT:          0 MISS:          0
cpu7_L2C TRANSLATION  ACCESS:          0 HIT:          0 MISS:          0
cpu7_L2C PREFETCH REQUESTED:    4800985 ISSUED:    4800982 USEFUL:    1564061 USELESS:       6526
cpu7_L2C AVERAGE MISS LATENCY: 173.4 cycles
cpu7_L2C TOTAL        ACCESS:          0 HIT:          0 MISS:          0
cpu7_L2C LOAD         ACCESS:          0 HIT:          0 MISS:          0
cpu7_L2C RFO          ACCESS:          0 HIT:          0 MISS:          0
cpu7_L2C PREFETCH     ACCESS:          0 HIT:          0 MISS:          0
cpu7_L2C WRITE        ACCESS:          0 HIT:          0 MISS:          0
cpu7_L2C TRANSLATION  ACCESS:          0 HIT:          0 MISS:          0
cpu7_L2C PREFETCH REQUESTED:    4800985 ISSUED:    4800982 USEFUL:    1564061 USELESS:       6526
cpu7_L2C AVERAGE MISS LATENCY: 173.4 cycles
cpu7_L2C TOTAL        ACCESS:          0 HIT:          0 MISS:          0
cpu7_L2C LOAD         ACCESS:          0 HIT:          0 MISS:          0
cpu7_L2C RFO          ACCESS:          0 HIT:          0 MISS:          0
cpu7_L2C PREFETCH     ACCESS:          0 HIT:          0 MISS:          0
cpu7_L2C WRITE        ACCESS:          0 HIT:          0 MISS:          0
cpu7_L2C TRANSLATION  ACCESS:          0 HIT:          0 MISS:          0
cpu7_L2C PREFETCH REQUESTED:    4800985 ISSUED:    4800982 USEFUL:    1564061 USELESS:       6526
cpu7_L2C AVERAGE MISS LATENCY: 173.4 cycles
cpu7_L2C TOTAL        ACCESS:          0 HIT:          0 MISS:          0
cpu7_L2C LOAD         ACCESS:          0 HIT:          0 MISS:          0
cpu7_L2C RFO          ACCESS:          0 HIT:          0 MISS:          0
cpu7_L2C PREFETCH     ACCESS:          0 HIT:          0 MISS:          0
cpu7_L2C WRITE        ACCESS:          0 HIT:          0 MISS:          0
cpu7_L2C TRANSLATION  ACCESS:          0 HIT:          0 MISS:          0
cpu7_L2C PREFETCH REQUESTED:    4800985 ISSUED:    4800982 USEFUL:    1564061 USELESS:       6526
cpu7_L2C AVERAGE MISS LATENCY: 173.4 cycles
cpu7_L2C TOTAL        ACCESS:          0 HIT:          0 MISS:          0
cpu7_L2C LOAD         ACCESS:          0 HIT:          0 MISS:          0
cpu7_L2C RFO          ACCESS:          0 HIT:          0 MISS:          0
cpu7_L2C PREFETCH     ACCESS:          0 HIT:          0 MISS:          0
cpu7_L2C WRITE        ACCESS:          0 HIT:          0 MISS:          0
cpu7_L2C TRANSLATION  ACCESS:          0 HIT:          0 MISS:          0
cpu7_L2C PREFETCH REQUESTED:    4800985 ISSUED:    4800982 USEFUL:    1564061 USELESS:       6526
cpu7_L2C AVERAGE MISS LATENCY: 173.4 cycles
cpu7_L2C TOTAL        ACCESS:    8994647 HIT:    4328565 MISS:    4666082
cpu7_L2C LOAD         ACCESS:    1783210 HIT:     722488 MISS:    1060722
cpu7_L2C RFO          ACCESS:       5030 HIT:       4539 MISS:        491
cpu7_L2C PREFETCH     ACCESS:    5476645 HIT:    1872240 MISS:    3604405
cpu7_L2C WRITE        ACCESS:    1728678 HIT:    1728678 MISS:          0
cpu7_L2C TRANSLATION  ACCESS:       1084 HIT:        620 MISS:        464
cpu7_L2C PREFETCH REQUESTED:    4800985 ISSUED:    4800982 USEFUL:    1564061 USELESS:       6526
cpu7_L2C AVERAGE MISS LATENCY: 173.4 cycles
cpu7_STLB TOTAL        ACCESS:          0 HIT:          0 MISS:          0
cpu7_STLB LOAD         ACCESS:          0 HIT:          0 MISS:          0
cpu7_STLB RFO          ACCESS:          0 HIT:          0 MISS:          0
cpu7_STLB PREFETCH     ACCESS:          0 HIT:          0 MISS:          0
cpu7_STLB WRITE        ACCESS:          0 HIT:          0 MISS:          0
cpu7_STLB TRANSLATION  ACCESS:          0 HIT:          0 MISS:          0
cpu7_STLB PREFETCH REQUESTED:          0 ISSUED:          0 USEFUL:          0 USELESS:          0
cpu7_STLB AVERAGE MISS LATENCY: 213.1 cycles
cpu7_STLB TOTAL        ACCESS:          0 HIT:          0 MISS:          0
cpu7_STLB LOAD         ACCESS:          0 HIT:          0 MISS:          0
cpu7_STLB RFO          ACCESS:          0 HIT:          0 MISS:          0
cpu7_STLB PREFETCH     ACCESS:          0 HIT:          0 MISS:          0
cpu7_STLB WRITE        ACCESS:          0 HIT:          0 MISS:          0
cpu7_STLB TRANSLATION  ACCESS:          0 HIT:          0 MISS:          0
cpu7_STLB PREFETCH REQUESTED:          0 ISSUED:          0 USEFUL:          0 USELESS:          0
cpu7_STLB AVERAGE MISS LATENCY: 213.1 cycles
cpu7_STLB TOTAL        ACCESS:          0 HIT:          0 MISS:          0
cpu7_STLB LOAD         ACCESS:          0 HIT:          0 MISS:          0
cpu7_STLB RFO          ACCESS:          0 HIT:          0 MISS:          0
cpu7_STLB PREFETCH     ACCESS:          0 HIT:          0 MISS:          0
cpu7_STLB WRITE        ACCESS:          0 HIT:          0 MISS:          0
cpu7_STLB TRANSLATION  ACCESS:          0 HIT:          0 MISS:          0
cpu7_STLB PREFETCH REQUESTED:          0 ISSUED:          0 USEFUL:          0 USELESS:          0
cpu7_STLB AVERAGE MISS LATENCY: 213.1 cycles
cpu7_STLB TOTAL        ACCESS:          0 HIT:          0 MISS:          0
cpu7_STLB LOAD         ACCESS:          0 HIT:          0 MISS:          0
cpu7_STLB RFO          ACCESS:          0 HIT:          0 MISS:          0
cpu7_STLB PREFETCH     ACCESS:          0 HIT:          0 MISS:          0
cpu7_STLB WRITE        ACCESS:          0 HIT:          0 MISS:          0
cpu7_STLB TRANSLATION  ACCESS:          0 HIT:          0 MISS:          0
cpu7_STLB PREFETCH REQUESTED:          0 ISSUED:          0 USEFUL:          0 USELESS:          0
cpu7_STLB AVERAGE MISS LATENCY: 213.1 cycles
cpu7_STLB TOTAL        ACCESS:          0 HIT:          0 MISS:          0
cpu7_STLB LOAD         ACCESS:          0 HIT:          0 MISS:          0
cpu7_STLB RFO          ACCESS:          0 HIT:          0 MISS:          0
cpu7_STLB PREFETCH     ACCESS:          0 HIT:          0 MISS:          0
cpu7_STLB WRITE        ACCESS:          0 HIT:          0 MISS:          0
cpu7_STLB TRANSLATION  ACCESS:          0 HIT:          0 MISS:          0
cpu7_STLB PREFETCH REQUESTED:          0 ISSUED:          0 USEFUL:          0 USELESS:          0
cpu7_STLB AVERAGE MISS LATENCY: 213.1 cycles
cpu7_STLB TOTAL        ACCESS:          0 HIT:          0 MISS:          0
cpu7_STLB LOAD         ACCESS:          0 HIT:          0 MISS:          0
cpu7_STLB RFO          ACCESS:          0 HIT:          0 MISS:          0
cpu7_STLB PREFETCH     ACCESS:          0 HIT:          0 MISS:          0
cpu7_STLB WRITE        ACCESS:          0 HIT:          0 MISS:          0
cpu7_STLB TRANSLATION  ACCESS:          0 HIT:          0 MISS:          0
cpu7_STLB PREFETCH REQUESTED:          0 ISSUED:          0 USEFUL:          0 USELESS:          0
cpu7_STLB AVERAGE MISS LATENCY: 213.1 cycles
cpu7_STLB TOTAL        ACCESS:          0 HIT:          0 MISS:          0
cpu7_STLB LOAD         ACCESS:          0 HIT:          0 MISS:          0
cpu7_STLB RFO          ACCESS:          0 HIT:          0 MISS:          0
cpu7_STLB PREFETCH     ACCESS:          0 HIT:          0 MISS:          0
cpu7_STLB WRITE        ACCESS:          0 HIT:          0 MISS:          0
cpu7_STLB TRANSLATION  ACCESS:          0 HIT:          0 MISS:          0
cpu7_STLB PREFETCH REQUESTED:          0 ISSUED:          0 USEFUL:          0 USELESS:          0
cpu7_STLB AVERAGE MISS LATENCY: 213.1 cycles
cpu7_STLB TOTAL        ACCESS:      45979 HIT:      18977 MISS:      27002
cpu7_STLB LOAD         ACCESS:      45979 HIT:      18977 MISS:      27002
cpu7_STLB RFO          ACCESS:          0 HIT:          0 MISS:          0
cpu7_STLB PREFETCH     ACCESS:          0 HIT:          0 MISS:          0
cpu7_STLB WRITE        ACCESS:          0 HIT:          0 MISS:          0
cpu7_STLB TRANSLATION  ACCESS:          0 HIT:          0 MISS:          0
cpu7_STLB PREFETCH REQUESTED:          0 ISSUED:          0 USEFUL:          0 USELESS:          0
cpu7_STLB AVERAGE MISS LATENCY: 213.1 cycles

DRAM Statistics

Channel 0 RQ ROW_BUFFER_HIT:    1375408
  ROW_BUFFER_MISS:    2636920
 AVG DBUS CONGESTED CYCLE: 3.902

Channel 0 WQ ROW_BUFFER_HIT:       1174
  ROW_BUFFER_MISS:       2701
  FULL:          0

Channel 1 RQ ROW_BUFFER_HIT:    1367617
  ROW_BUFFER_MISS:    2639735
 AVG DBUS CONGESTED CYCLE: 3.902

Channel 1 WQ ROW_BUFFER_HIT:       1093
  ROW_BUFFER_MISS:       2745
  FULL:          0
