WARNING: physical memory size is smaller than virtual memory size.

*** ChampSim Multicore Out-of-Order Simulator ***
Warmup Instructions: 200000000
Simulation Instructions: 200000000
Number of CPUs: 2
Page size: 4096

Off-chip DRAM Size: 8 GiB Channels: 2 Width: 64-bit Data Race: 3200 MT/s
Heartbeat CPU 1 instructions: 10000002 cycles: 2500170 heartbeat IPC: 4 cumulative IPC: 4 (Simulation time: 00 hr 00 min 47 sec)
Heartbeat CPU 0 instructions: 10000002 cycles: 2946949 heartbeat IPC: 3.393 cumulative IPC: 3.393 (Simulation time: 00 hr 00 min 55 sec)
Heartbeat CPU 1 instructions: 20000002 cycles: 5000170 heartbeat IPC: 4 cumulative IPC: 4 (Simulation time: 00 hr 01 min 33 sec)
Heartbeat CPU 0 instructions: 20000001 cycles: 5887371 heartbeat IPC: 3.401 cumulative IPC: 3.397 (Simulation time: 00 hr 01 min 50 sec)
Heartbeat CPU 1 instructions: 30000002 cycles: 7500170 heartbeat IPC: 4 cumulative IPC: 4 (Simulation time: 00 hr 02 min 20 sec)
Heartbeat CPU 0 instructions: 30000002 cycles: 8819278 heartbeat IPC: 3.411 cumulative IPC: 3.402 (Simulation time: 00 hr 02 min 45 sec)
Heartbeat CPU 1 instructions: 40000002 cycles: 10000170 heartbeat IPC: 4 cumulative IPC: 4 (Simulation time: 00 hr 03 min 07 sec)
Heartbeat CPU 0 instructions: 40000002 cycles: 11771900 heartbeat IPC: 3.387 cumulative IPC: 3.398 (Simulation time: 00 hr 03 min 40 sec)
Heartbeat CPU 1 instructions: 50000002 cycles: 12500170 heartbeat IPC: 4 cumulative IPC: 4 (Simulation time: 00 hr 03 min 54 sec)
Heartbeat CPU 0 instructions: 50000003 cycles: 14725775 heartbeat IPC: 3.385 cumulative IPC: 3.395 (Simulation time: 00 hr 04 min 35 sec)
Heartbeat CPU 1 instructions: 60000002 cycles: 15000170 heartbeat IPC: 4 cumulative IPC: 4 (Simulation time: 00 hr 04 min 41 sec)
Heartbeat CPU 1 instructions: 70000002 cycles: 17500170 heartbeat IPC: 4 cumulative IPC: 4 (Simulation time: 00 hr 05 min 27 sec)
Heartbeat CPU 0 instructions: 60000001 cycles: 17692154 heartbeat IPC: 3.371 cumulative IPC: 3.391 (Simulation time: 00 hr 05 min 31 sec)
Heartbeat CPU 1 instructions: 80000002 cycles: 20000170 heartbeat IPC: 4 cumulative IPC: 4 (Simulation time: 00 hr 06 min 14 sec)
Heartbeat CPU 0 instructions: 70000001 cycles: 20652602 heartbeat IPC: 3.378 cumulative IPC: 3.389 (Simulation time: 00 hr 06 min 26 sec)
Heartbeat CPU 1 instructions: 90000002 cycles: 22500170 heartbeat IPC: 4 cumulative IPC: 4 (Simulation time: 00 hr 07 min 01 sec)
Heartbeat CPU 0 instructions: 80000000 cycles: 23593230 heartbeat IPC: 3.401 cumulative IPC: 3.391 (Simulation time: 00 hr 07 min 21 sec)
Heartbeat CPU 1 instructions: 100000002 cycles: 25000170 heartbeat IPC: 4 cumulative IPC: 4 (Simulation time: 00 hr 07 min 47 sec)
Heartbeat CPU 0 instructions: 90000003 cycles: 26548490 heartbeat IPC: 3.384 cumulative IPC: 3.39 (Simulation time: 00 hr 08 min 16 sec)
Heartbeat CPU 1 instructions: 110000002 cycles: 27500170 heartbeat IPC: 4 cumulative IPC: 4 (Simulation time: 00 hr 08 min 34 sec)
Heartbeat CPU 0 instructions: 100000002 cycles: 29493039 heartbeat IPC: 3.396 cumulative IPC: 3.391 (Simulation time: 00 hr 09 min 11 sec)
Heartbeat CPU 1 instructions: 120000002 cycles: 30000170 heartbeat IPC: 4 cumulative IPC: 4 (Simulation time: 00 hr 09 min 21 sec)
Heartbeat CPU 0 instructions: 110000001 cycles: 32450667 heartbeat IPC: 3.381 cumulative IPC: 3.39 (Simulation time: 00 hr 10 min 06 sec)
Heartbeat CPU 1 instructions: 130000002 cycles: 32500170 heartbeat IPC: 4 cumulative IPC: 4 (Simulation time: 00 hr 10 min 07 sec)
Heartbeat CPU 1 instructions: 140000002 cycles: 35000170 heartbeat IPC: 4 cumulative IPC: 4 (Simulation time: 00 hr 10 min 54 sec)
Heartbeat CPU 0 instructions: 120000002 cycles: 35421972 heartbeat IPC: 3.366 cumulative IPC: 3.388 (Simulation time: 00 hr 11 min 02 sec)
Heartbeat CPU 1 instructions: 150000002 cycles: 37500170 heartbeat IPC: 4 cumulative IPC: 4 (Simulation time: 00 hr 11 min 41 sec)
Heartbeat CPU 0 instructions: 130000003 cycles: 38367085 heartbeat IPC: 3.395 cumulative IPC: 3.388 (Simulation time: 00 hr 11 min 57 sec)
Heartbeat CPU 1 instructions: 160000002 cycles: 40000170 heartbeat IPC: 4 cumulative IPC: 4 (Simulation time: 00 hr 12 min 27 sec)
Heartbeat CPU 0 instructions: 140000001 cycles: 41319684 heartbeat IPC: 3.387 cumulative IPC: 3.388 (Simulation time: 00 hr 12 min 52 sec)
Heartbeat CPU 1 instructions: 170000002 cycles: 42500170 heartbeat IPC: 4 cumulative IPC: 4 (Simulation time: 00 hr 13 min 14 sec)
Heartbeat CPU 0 instructions: 150000001 cycles: 44292257 heartbeat IPC: 3.364 cumulative IPC: 3.387 (Simulation time: 00 hr 13 min 47 sec)
Heartbeat CPU 1 instructions: 180000002 cycles: 45000170 heartbeat IPC: 4 cumulative IPC: 4 (Simulation time: 00 hr 14 min 01 sec)
Heartbeat CPU 0 instructions: 160000003 cycles: 47269727 heartbeat IPC: 3.359 cumulative IPC: 3.385 (Simulation time: 00 hr 14 min 43 sec)
Heartbeat CPU 1 instructions: 190000002 cycles: 47500170 heartbeat IPC: 4 cumulative IPC: 4 (Simulation time: 00 hr 14 min 47 sec)
Heartbeat CPU 1 instructions: 200000002 cycles: 50000170 heartbeat IPC: 4 cumulative IPC: 4 (Simulation time: 00 hr 15 min 34 sec)
Warmup finished CPU 1 instructions: 200000002 cycles: 50000171 cumulative IPC: 4 (Simulation time: 00 hr 15 min 34 sec)
Heartbeat CPU 0 instructions: 170000002 cycles: 50241554 heartbeat IPC: 3.365 cumulative IPC: 3.384 (Simulation time: 00 hr 15 min 39 sec)
Heartbeat CPU 1 instructions: 210000002 cycles: 52500170 heartbeat IPC: 4 cumulative IPC: 4 (Simulation time: 00 hr 16 min 21 sec)
Heartbeat CPU 0 instructions: 180000003 cycles: 53209570 heartbeat IPC: 3.369 cumulative IPC: 3.383 (Simulation time: 00 hr 16 min 34 sec)
Heartbeat CPU 1 instructions: 220000002 cycles: 55000170 heartbeat IPC: 4 cumulative IPC: 4 (Simulation time: 00 hr 17 min 07 sec)
Heartbeat CPU 0 instructions: 190000003 cycles: 56184192 heartbeat IPC: 3.362 cumulative IPC: 3.382 (Simulation time: 00 hr 17 min 29 sec)
Heartbeat CPU 1 instructions: 230000002 cycles: 57500170 heartbeat IPC: 4 cumulative IPC: 4 (Simulation time: 00 hr 17 min 54 sec)
Heartbeat CPU 0 instructions: 200000001 cycles: 59149220 heartbeat IPC: 3.373 cumulative IPC: 3.381 (Simulation time: 00 hr 18 min 24 sec)
Warmup finished CPU 0 instructions: 200000001 cycles: 59149221 cumulative IPC: 3.381 (Simulation time: 00 hr 18 min 24 sec)
Warmup complete CPU 0 instructions: 200000001 cycles: 59149221 cumulative IPC: 3.381 (Simulation time: 00 hr 18 min 24 sec)
Warmup complete CPU 1 instructions: 236596202 cycles: 59149221 cumulative IPC: 4 (Simulation time: 00 hr 18 min 24 sec)
Heartbeat CPU 1 instructions: 240000002 cycles: 60747834 heartbeat IPC: 3.079 cumulative IPC: 2.129 (Simulation time: 00 hr 18 min 44 sec)
Heartbeat CPU 1 instructions: 250000003 cycles: 64639495 heartbeat IPC: 2.57 cumulative IPC: 2.441 (Simulation time: 00 hr 19 min 32 sec)
Heartbeat CPU 1 instructions: 260000000 cycles: 68321999 heartbeat IPC: 2.716 cumulative IPC: 2.551 (Simulation time: 00 hr 20 min 20 sec)
Heartbeat CPU 1 instructions: 270000002 cycles: 72209924 heartbeat IPC: 2.572 cumulative IPC: 2.558 (Simulation time: 00 hr 21 min 09 sec)
Heartbeat CPU 1 instructions: 280000002 cycles: 75960821 heartbeat IPC: 2.666 cumulative IPC: 2.582 (Simulation time: 00 hr 21 min 56 sec)
Heartbeat CPU 1 instructions: 290000003 cycles: 79500641 heartbeat IPC: 2.825 cumulative IPC: 2.624 (Simulation time: 00 hr 22 min 42 sec)
Heartbeat CPU 0 instructions: 210000000 cycles: 81744471 heartbeat IPC: 0.4426 cumulative IPC: 0.4426 (Simulation time: 00 hr 23 min 11 sec)
Heartbeat CPU 1 instructions: 300000000 cycles: 83168435 heartbeat IPC: 2.726 cumulative IPC: 2.64 (Simulation time: 00 hr 23 min 29 sec)
Heartbeat CPU 1 instructions: 310000001 cycles: 86668530 heartbeat IPC: 2.857 cumulative IPC: 2.667 (Simulation time: 00 hr 24 min 14 sec)
Heartbeat CPU 1 instructions: 320000000 cycles: 90161588 heartbeat IPC: 2.863 cumulative IPC: 2.689 (Simulation time: 00 hr 25 min 00 sec)
Heartbeat CPU 1 instructions: 330000003 cycles: 93661926 heartbeat IPC: 2.857 cumulative IPC: 2.706 (Simulation time: 00 hr 25 min 45 sec)
Heartbeat CPU 1 instructions: 340000001 cycles: 97337850 heartbeat IPC: 2.72 cumulative IPC: 2.708 (Simulation time: 00 hr 26 min 31 sec)
Heartbeat CPU 1 instructions: 350000000 cycles: 100876270 heartbeat IPC: 2.826 cumulative IPC: 2.718 (Simulation time: 00 hr 27 min 17 sec)
Heartbeat CPU 1 instructions: 360000002 cycles: 104456109 heartbeat IPC: 2.793 cumulative IPC: 2.724 (Simulation time: 00 hr 28 min 03 sec)
Heartbeat CPU 0 instructions: 220000003 cycles: 106490215 heartbeat IPC: 0.4041 cumulative IPC: 0.4225 (Simulation time: 00 hr 28 min 29 sec)
Heartbeat CPU 1 instructions: 370000002 cycles: 108074885 heartbeat IPC: 2.763 cumulative IPC: 2.727 (Simulation time: 00 hr 28 min 49 sec)
Heartbeat CPU 1 instructions: 380000003 cycles: 112706678 heartbeat IPC: 2.159 cumulative IPC: 2.678 (Simulation time: 00 hr 29 min 44 sec)
Heartbeat CPU 1 instructions: 390000003 cycles: 116640496 heartbeat IPC: 2.542 cumulative IPC: 2.668 (Simulation time: 00 hr 30 min 33 sec)
Heartbeat CPU 1 instructions: 400000001 cycles: 120272457 heartbeat IPC: 2.753 cumulative IPC: 2.673 (Simulation time: 00 hr 31 min 19 sec)
Heartbeat CPU 1 instructions: 410000000 cycles: 123867033 heartbeat IPC: 2.782 cumulative IPC: 2.679 (Simulation time: 00 hr 32 min 05 sec)
Heartbeat CPU 1 instructions: 420000003 cycles: 127403265 heartbeat IPC: 2.828 cumulative IPC: 2.687 (Simulation time: 00 hr 32 min 50 sec)
Heartbeat CPU 1 instructions: 430000002 cycles: 131747474 heartbeat IPC: 2.302 cumulative IPC: 2.664 (Simulation time: 00 hr 33 min 43 sec)
Heartbeat CPU 0 instructions: 230000003 cycles: 132666790 heartbeat IPC: 0.382 cumulative IPC: 0.4081 (Simulation time: 00 hr 33 min 55 sec)
Simulation finished CPU 1 instructions: 200000001 cycles: 74900987 cumulative IPC: 2.67 (Simulation time: 00 hr 34 min 12 sec)
Heartbeat CPU 1 instructions: 440000000 cycles: 135800778 heartbeat IPC: 2.467 cumulative IPC: 2.654 (Simulation time: 00 hr 34 min 32 sec)
Heartbeat CPU 1 instructions: 450000003 cycles: 141150740 heartbeat IPC: 1.869 cumulative IPC: 2.602 (Simulation time: 00 hr 35 min 34 sec)
Heartbeat CPU 1 instructions: 460000000 cycles: 144736833 heartbeat IPC: 2.789 cumulative IPC: 2.61 (Simulation time: 00 hr 36 min 19 sec)
Heartbeat CPU 1 instructions: 470000003 cycles: 148359747 heartbeat IPC: 2.76 cumulative IPC: 2.616 (Simulation time: 00 hr 37 min 06 sec)
Heartbeat CPU 1 instructions: 480000003 cycles: 152064884 heartbeat IPC: 2.699 cumulative IPC: 2.62 (Simulation time: 00 hr 37 min 53 sec)
Heartbeat CPU 0 instructions: 240000001 cycles: 162687376 heartbeat IPC: 0.3331 cumulative IPC: 0.3863 (Simulation time: 00 hr 39 min 35 sec)
Heartbeat CPU 1 instructions: 490000000 cycles: 172646552 heartbeat IPC: 0.4859 cumulative IPC: 2.233 (Simulation time: 00 hr 41 min 23 sec)
Heartbeat CPU 1 instructions: 500000003 cycles: 179154336 heartbeat IPC: 1.537 cumulative IPC: 2.195 (Simulation time: 00 hr 42 min 35 sec)
Heartbeat CPU 1 instructions: 510000001 cycles: 185814370 heartbeat IPC: 1.501 cumulative IPC: 2.158 (Simulation time: 00 hr 43 min 48 sec)
Heartbeat CPU 1 instructions: 520000001 cycles: 192523363 heartbeat IPC: 1.491 cumulative IPC: 2.125 (Simulation time: 00 hr 45 min 01 sec)
Heartbeat CPU 0 instructions: 250000000 cycles: 192585434 heartbeat IPC: 0.3345 cumulative IPC: 0.3747 (Simulation time: 00 hr 45 min 02 sec)
Heartbeat CPU 1 instructions: 530000001 cycles: 199230904 heartbeat IPC: 1.491 cumulative IPC: 2.095 (Simulation time: 00 hr 46 min 14 sec)
Heartbeat CPU 1 instructions: 540000002 cycles: 205932723 heartbeat IPC: 1.492 cumulative IPC: 2.067 (Simulation time: 00 hr 47 min 27 sec)
Heartbeat CPU 1 instructions: 550000000 cycles: 212612840 heartbeat IPC: 1.497 cumulative IPC: 2.042 (Simulation time: 00 hr 48 min 40 sec)
Heartbeat CPU 0 instructions: 260000002 cycles: 220760955 heartbeat IPC: 0.3549 cumulative IPC: 0.3713 (Simulation time: 00 hr 50 min 06 sec)
Heartbeat CPU 1 instructions: 560000000 cycles: 221568000 heartbeat IPC: 1.117 cumulative IPC: 1.991 (Simulation time: 00 hr 50 min 13 sec)
Heartbeat CPU 1 instructions: 570000001 cycles: 238806258 heartbeat IPC: 0.5801 cumulative IPC: 1.856 (Simulation time: 00 hr 53 min 15 sec)
Heartbeat CPU 1 instructions: 580000001 cycles: 245398290 heartbeat IPC: 1.517 cumulative IPC: 1.844 (Simulation time: 00 hr 54 min 27 sec)
Heartbeat CPU 0 instructions: 270000001 cycles: 251779401 heartbeat IPC: 0.3224 cumulative IPC: 0.3634 (Simulation time: 00 hr 55 min 37 sec)
Heartbeat CPU 1 instructions: 590000003 cycles: 252057719 heartbeat IPC: 1.502 cumulative IPC: 1.832 (Simulation time: 00 hr 55 min 40 sec)
Heartbeat CPU 1 instructions: 600000003 cycles: 258731354 heartbeat IPC: 1.498 cumulative IPC: 1.821 (Simulation time: 00 hr 56 min 53 sec)
Heartbeat CPU 1 instructions: 610000003 cycles: 265522633 heartbeat IPC: 1.472 cumulative IPC: 1.809 (Simulation time: 00 hr 58 min 07 sec)
Heartbeat CPU 1 instructions: 620000000 cycles: 272181873 heartbeat IPC: 1.502 cumulative IPC: 1.8 (Simulation time: 00 hr 59 min 20 sec)
Heartbeat CPU 0 instructions: 280000002 cycles: 277419857 heartbeat IPC: 0.39 cumulative IPC: 0.3665 (Simulation time: 01 hr 00 min 18 sec)
Heartbeat CPU 1 instructions: 630000002 cycles: 278851594 heartbeat IPC: 1.499 cumulative IPC: 1.791 (Simulation time: 01 hr 00 min 34 sec)
Heartbeat CPU 1 instructions: 640000002 cycles: 298647837 heartbeat IPC: 0.5051 cumulative IPC: 1.684 (Simulation time: 01 hr 03 min 58 sec)
Heartbeat CPU 1 instructions: 650000001 cycles: 305225031 heartbeat IPC: 1.52 cumulative IPC: 1.68 (Simulation time: 01 hr 05 min 10 sec)
Heartbeat CPU 0 instructions: 290000000 cycles: 309286522 heartbeat IPC: 0.3138 cumulative IPC: 0.3598 (Simulation time: 01 hr 05 min 54 sec)
Heartbeat CPU 1 instructions: 660000003 cycles: 311925362 heartbeat IPC: 1.492 cumulative IPC: 1.675 (Simulation time: 01 hr 06 min 23 sec)
Heartbeat CPU 1 instructions: 670000001 cycles: 318532119 heartbeat IPC: 1.514 cumulative IPC: 1.671 (Simulation time: 01 hr 07 min 36 sec)
Heartbeat CPU 1 instructions: 680000001 cycles: 325222147 heartbeat IPC: 1.495 cumulative IPC: 1.666 (Simulation time: 01 hr 08 min 49 sec)
Heartbeat CPU 1 instructions: 690000000 cycles: 331936031 heartbeat IPC: 1.489 cumulative IPC: 1.662 (Simulation time: 01 hr 10 min 02 sec)
Heartbeat CPU 0 instructions: 300000002 cycles: 335244101 heartbeat IPC: 0.3852 cumulative IPC: 0.3622 (Simulation time: 01 hr 10 min 39 sec)
Heartbeat CPU 1 instructions: 700000002 cycles: 338590599 heartbeat IPC: 1.503 cumulative IPC: 1.658 (Simulation time: 01 hr 11 min 16 sec)
Heartbeat CPU 1 instructions: 710000000 cycles: 356454503 heartbeat IPC: 0.5598 cumulative IPC: 1.592 (Simulation time: 01 hr 14 min 18 sec)
Heartbeat CPU 1 instructions: 720000000 cycles: 365747485 heartbeat IPC: 1.076 cumulative IPC: 1.577 (Simulation time: 01 hr 16 min 00 sec)
Heartbeat CPU 0 instructions: 310000000 cycles: 367335168 heartbeat IPC: 0.3116 cumulative IPC: 0.3569 (Simulation time: 01 hr 16 min 17 sec)
Heartbeat CPU 1 instructions: 730000001 cycles: 372374348 heartbeat IPC: 1.509 cumulative IPC: 1.575 (Simulation time: 01 hr 17 min 12 sec)
Heartbeat CPU 1 instructions: 740000001 cycles: 379013493 heartbeat IPC: 1.506 cumulative IPC: 1.574 (Simulation time: 01 hr 18 min 25 sec)
Heartbeat CPU 1 instructions: 750000003 cycles: 385695351 heartbeat IPC: 1.497 cumulative IPC: 1.572 (Simulation time: 01 hr 19 min 38 sec)
Heartbeat CPU 1 instructions: 760000003 cycles: 392407950 heartbeat IPC: 1.49 cumulative IPC: 1.571 (Simulation time: 01 hr 20 min 51 sec)
Heartbeat CPU 0 instructions: 320000001 cycles: 393903205 heartbeat IPC: 0.3764 cumulative IPC: 0.3585 (Simulation time: 01 hr 21 min 07 sec)
Heartbeat CPU 1 instructions: 770000003 cycles: 399081906 heartbeat IPC: 1.498 cumulative IPC: 1.569 (Simulation time: 01 hr 22 min 05 sec)
Heartbeat CPU 1 instructions: 780000000 cycles: 405727592 heartbeat IPC: 1.505 cumulative IPC: 1.568 (Simulation time: 01 hr 23 min 17 sec)
Heartbeat CPU 0 instructions: 330000000 cycles: 423835663 heartbeat IPC: 0.3341 cumulative IPC: 0.3565 (Simulation time: 01 hr 26 min 25 sec)
Heartbeat CPU 1 instructions: 790000002 cycles: 424857592 heartbeat IPC: 0.5227 cumulative IPC: 1.513 (Simulation time: 01 hr 26 min 37 sec)
Heartbeat CPU 1 instructions: 800000002 cycles: 431468613 heartbeat IPC: 1.513 cumulative IPC: 1.513 (Simulation time: 01 hr 27 min 49 sec)
Heartbeat CPU 1 instructions: 810000003 cycles: 438130120 heartbeat IPC: 1.501 cumulative IPC: 1.513 (Simulation time: 01 hr 29 min 02 sec)
Heartbeat CPU 1 instructions: 820000003 cycles: 444759969 heartbeat IPC: 1.508 cumulative IPC: 1.513 (Simulation time: 01 hr 30 min 15 sec)
Heartbeat CPU 0 instructions: 340000000 cycles: 449688213 heartbeat IPC: 0.3868 cumulative IPC: 0.3585 (Simulation time: 01 hr 31 min 09 sec)
Heartbeat CPU 1 instructions: 830000001 cycles: 451456947 heartbeat IPC: 1.493 cumulative IPC: 1.513 (Simulation time: 01 hr 31 min 28 sec)
Heartbeat CPU 1 instructions: 840000001 cycles: 458157034 heartbeat IPC: 1.493 cumulative IPC: 1.512 (Simulation time: 01 hr 32 min 42 sec)
Heartbeat CPU 1 instructions: 850000001 cycles: 464787574 heartbeat IPC: 1.508 cumulative IPC: 1.512 (Simulation time: 01 hr 33 min 55 sec)
Heartbeat CPU 0 instructions: 350000000 cycles: 476179368 heartbeat IPC: 0.3775 cumulative IPC: 0.3597 (Simulation time: 01 hr 35 min 49 sec)
Heartbeat CPU 1 instructions: 860000002 cycles: 483831056 heartbeat IPC: 0.5251 cumulative IPC: 1.468 (Simulation time: 01 hr 37 min 12 sec)
Heartbeat CPU 1 instructions: 870000003 cycles: 490321685 heartbeat IPC: 1.541 cumulative IPC: 1.469 (Simulation time: 01 hr 38 min 24 sec)
Heartbeat CPU 1 instructions: 880000003 cycles: 496951858 heartbeat IPC: 1.508 cumulative IPC: 1.47 (Simulation time: 01 hr 39 min 36 sec)
Heartbeat CPU 1 instructions: 890000001 cycles: 503642360 heartbeat IPC: 1.495 cumulative IPC: 1.47 (Simulation time: 01 hr 40 min 48 sec)
Heartbeat CPU 0 instructions: 360000000 cycles: 504799711 heartbeat IPC: 0.3494 cumulative IPC: 0.359 (Simulation time: 01 hr 41 min 01 sec)
Heartbeat CPU 1 instructions: 900000001 cycles: 510364109 heartbeat IPC: 1.488 cumulative IPC: 1.47 (Simulation time: 01 hr 42 min 01 sec)
Heartbeat CPU 1 instructions: 910000003 cycles: 517081155 heartbeat IPC: 1.489 cumulative IPC: 1.471 (Simulation time: 01 hr 43 min 14 sec)
Heartbeat CPU 1 instructions: 920000003 cycles: 523760954 heartbeat IPC: 1.497 cumulative IPC: 1.471 (Simulation time: 01 hr 44 min 27 sec)
Heartbeat CPU 1 instructions: 930000003 cycles: 530478725 heartbeat IPC: 1.489 cumulative IPC: 1.471 (Simulation time: 01 hr 45 min 39 sec)
Heartbeat CPU 0 instructions: 370000001 cycles: 531946088 heartbeat IPC: 0.3684 cumulative IPC: 0.3596 (Simulation time: 01 hr 45 min 54 sec)
Heartbeat CPU 1 instructions: 940000000 cycles: 550705498 heartbeat IPC: 0.4944 cumulative IPC: 1.431 (Simulation time: 01 hr 49 min 08 sec)
Heartbeat CPU 1 instructions: 950000002 cycles: 557295818 heartbeat IPC: 1.517 cumulative IPC: 1.432 (Simulation time: 01 hr 50 min 19 sec)
Heartbeat CPU 0 instructions: 380000001 cycles: 563012944 heartbeat IPC: 0.3219 cumulative IPC: 0.3572 (Simulation time: 01 hr 51 min 21 sec)
Heartbeat CPU 1 instructions: 960000001 cycles: 563939608 heartbeat IPC: 1.505 cumulative IPC: 1.433 (Simulation time: 01 hr 51 min 32 sec)
Heartbeat CPU 1 instructions: 970000003 cycles: 570631500 heartbeat IPC: 1.494 cumulative IPC: 1.434 (Simulation time: 01 hr 52 min 44 sec)
Heartbeat CPU 1 instructions: 980000003 cycles: 577375803 heartbeat IPC: 1.483 cumulative IPC: 1.435 (Simulation time: 01 hr 53 min 57 sec)
Heartbeat CPU 1 instructions: 990000001 cycles: 584019773 heartbeat IPC: 1.505 cumulative IPC: 1.435 (Simulation time: 01 hr 55 min 09 sec)
Heartbeat CPU 0 instructions: 390000003 cycles: 590229932 heartbeat IPC: 0.3674 cumulative IPC: 0.3578 (Simulation time: 01 hr 56 min 16 sec)
Heartbeat CPU 1 instructions: 1000000000 cycles: 590762334 heartbeat IPC: 1.483 cumulative IPC: 1.436 (Simulation time: 01 hr 56 min 22 sec)
Heartbeat CPU 1 instructions: 1010000001 cycles: 611772389 heartbeat IPC: 0.476 cumulative IPC: 1.4 (Simulation time: 01 hr 59 min 56 sec)
Heartbeat CPU 1 instructions: 1020000002 cycles: 618290403 heartbeat IPC: 1.534 cumulative IPC: 1.401 (Simulation time: 02 hr 01 min 08 sec)
Heartbeat CPU 0 instructions: 400000001 cycles: 622348900 heartbeat IPC: 0.3113 cumulative IPC: 0.3551 (Simulation time: 02 hr 01 min 52 sec)
Simulation finished CPU 0 instructions: 200000000 cycles: 563199680 cumulative IPC: 0.3551 (Simulation time: 02 hr 01 min 52 sec)
Simulation complete CPU 0 instructions: 200000000 cycles: 563199680 cumulative IPC: 0.3551 (Simulation time: 02 hr 01 min 52 sec)
Simulation complete CPU 1 instructions: 789526793 cycles: 563199680 cumulative IPC: 1.402 (Simulation time: 02 hr 01 min 52 sec)

ChampSim completed all CPUs

=== Simulation ===
CPU 0 runs /public/champsim/dp3_traces/619.lbm_s-4268B.champsimtrace.xzCPU 1 runs /public/champsim/dp3_traces/654.roms_s-842B.champsimtrace.xz
Total Simulation Statistics (not including warmup)

CPU 0 cumulative IPC: 0.3551 instructions: 200000000 cycles: 563199680
CPU 0 Branch Prediction Accuracy: 97.1% MPKI: 0.5195 Average ROB Occupancy at Mispredict: 313.8
Branch type MPKI
BRANCH_DIRECT_JUMP: 0
BRANCH_INDIRECT: 0
BRANCH_CONDITIONAL: 0.519
BRANCH_DIRECT_CALL: 0
BRANCH_INDIRECT_CALL: 0
BRANCH_RETURN: 0


CPU 1 cumulative IPC: 1.402 instructions: 789526793 cycles: 563199680
CPU 1 Branch Prediction Accuracy: 90.86% MPKI: 11.15 Average ROB Occupancy at Mispredict: 53.24
Branch type MPKI
BRANCH_DIRECT_JUMP: 0.0487
BRANCH_INDIRECT: 0
BRANCH_CONDITIONAL: 5.9
BRANCH_DIRECT_CALL: 1.01e-05
BRANCH_INDIRECT_CALL: 0
BRANCH_RETURN: 5.2

cpu0 INVINCIBLE ACTIVATED: 0 FREED: 0
LLC LOAD         IN CARTEL ACCESSES:          0 BLOCKED ACCESSES:          0
LLC RFO          IN CARTEL ACCESSES:          0 BLOCKED ACCESSES:          0
LLC PREFETCH     IN CARTEL ACCESSES:          0 BLOCKED ACCESSES:          0
LLC WRITE        IN CARTEL ACCESSES:          0 BLOCKED ACCESSES:          0
LLC TRANSLATION  IN CARTEL ACCESSES:          0 BLOCKED ACCESSES:          0
LLC TOTAL       IN CARTEL ACCESS:   17555927 IN CARTEL HIT:    8201765 IN CARTEL MISS:    9354162
LLC LOAD         IN CARTEL ACCESS:    1380509 IN CARTEL HIT:     183947 IN CARTEL MISS:    1196562
LLC RFO          IN CARTEL ACCESS:    7229229 IN CARTEL HIT:     427912 IN CARTEL MISS:    6801317
LLC PREFETCH     IN CARTEL ACCESS:    1716666 IN CARTEL HIT:     364016 IN CARTEL MISS:    1352650
LLC WRITE        IN CARTEL ACCESS:    7228401 IN CARTEL HIT:    7225739 IN CARTEL MISS:       2662
LLC TRANSLATION  IN CARTEL ACCESS:       1122 IN CARTEL HIT:        151 IN CARTEL MISS:        971
LLC TOTAL        ACCESS:   17555927 HIT:    8201765 MISS:    9354162
LLC LOAD         ACCESS:    1380509 HIT:     183947 MISS:    1196562
LLC RFO          ACCESS:    7229229 HIT:     427912 MISS:    6801317
LLC PREFETCH     ACCESS:    1716666 HIT:     364016 MISS:    1352650
LLC WRITE        ACCESS:    7228401 HIT:    7225739 MISS:       2662
LLC TRANSLATION  ACCESS:       1122 HIT:        151 MISS:        971
LLC PREFETCH REQUESTED:          0 ISSUED:          0 USEFUL:          0 USELESS:          0
LLC AVERAGE MISS LATENCY: 891.7 cycles
cpu1 INVINCIBLE ACTIVATED: 0 FREED: 0
LLC LOAD         IN CARTEL ACCESSES:          0 BLOCKED ACCESSES:          0
LLC RFO          IN CARTEL ACCESSES:          0 BLOCKED ACCESSES:          0
LLC PREFETCH     IN CARTEL ACCESSES:          0 BLOCKED ACCESSES:          0
LLC WRITE        IN CARTEL ACCESSES:          0 BLOCKED ACCESSES:          0
LLC TRANSLATION  IN CARTEL ACCESSES:          0 BLOCKED ACCESSES:          0
LLC TOTAL       IN CARTEL ACCESS:    3543407 IN CARTEL HIT:     886825 IN CARTEL MISS:    2656582
LLC LOAD         IN CARTEL ACCESS:     287956 IN CARTEL HIT:      40299 IN CARTEL MISS:     247657
LLC RFO          IN CARTEL ACCESS:     787079 IN CARTEL HIT:        452 IN CARTEL MISS:     786627
LLC PREFETCH     IN CARTEL ACCESS:    1672917 IN CARTEL HIT:     158916 IN CARTEL MISS:    1514001
LLC WRITE        IN CARTEL ACCESS:     787448 IN CARTEL HIT:     685369 IN CARTEL MISS:     102079
LLC TRANSLATION  IN CARTEL ACCESS:       8007 IN CARTEL HIT:       1789 IN CARTEL MISS:       6218
LLC TOTAL        ACCESS:    3543407 HIT:     886825 MISS:    2656582
LLC LOAD         ACCESS:     287956 HIT:      40299 MISS:     247657
LLC RFO          ACCESS:     787079 HIT:        452 MISS:     786627
LLC PREFETCH     ACCESS:    1672917 HIT:     158916 MISS:    1514001
LLC WRITE        ACCESS:     787448 HIT:     685369 MISS:     102079
LLC TRANSLATION  ACCESS:       8007 HIT:       1789 MISS:       6218
LLC PREFETCH REQUESTED:          0 ISSUED:          0 USEFUL:          0 USELESS:          0
LLC AVERAGE MISS LATENCY: 891.7 cycles
cpu0_DTLB TOTAL        ACCESS:   35931306 HIT:   35454863 MISS:     476443
cpu0_DTLB LOAD         ACCESS:   35931306 HIT:   35454863 MISS:     476443
cpu0_DTLB RFO          ACCESS:          0 HIT:          0 MISS:          0
cpu0_DTLB PREFETCH     ACCESS:          0 HIT:          0 MISS:          0
cpu0_DTLB WRITE        ACCESS:          0 HIT:          0 MISS:          0
cpu0_DTLB TRANSLATION  ACCESS:          0 HIT:          0 MISS:          0
cpu0_DTLB PREFETCH REQUESTED:          0 ISSUED:          0 USEFUL:          0 USELESS:          0
cpu0_DTLB AVERAGE MISS LATENCY: 60.07 cycles
cpu0_DTLB TOTAL        ACCESS:          0 HIT:          0 MISS:          0
cpu0_DTLB LOAD         ACCESS:          0 HIT:          0 MISS:          0
cpu0_DTLB RFO          ACCESS:          0 HIT:          0 MISS:          0
cpu0_DTLB PREFETCH     ACCESS:          0 HIT:          0 MISS:          0
cpu0_DTLB WRITE        ACCESS:          0 HIT:          0 MISS:          0
cpu0_DTLB TRANSLATION  ACCESS:          0 HIT:          0 MISS:          0
cpu0_DTLB PREFETCH REQUESTED:          0 ISSUED:          0 USEFUL:          0 USELESS:          0
cpu0_DTLB AVERAGE MISS LATENCY: 60.07 cycles
cpu0_ITLB TOTAL        ACCESS:          0 HIT:          0 MISS:          0
cpu0_ITLB LOAD         ACCESS:          0 HIT:          0 MISS:          0
cpu0_ITLB RFO          ACCESS:          0 HIT:          0 MISS:          0
cpu0_ITLB PREFETCH     ACCESS:          0 HIT:          0 MISS:          0
cpu0_ITLB WRITE        ACCESS:          0 HIT:          0 MISS:          0
cpu0_ITLB TRANSLATION  ACCESS:          0 HIT:          0 MISS:          0
cpu0_ITLB PREFETCH REQUESTED:          0 ISSUED:          0 USEFUL:          0 USELESS:          0
cpu0_ITLB AVERAGE MISS LATENCY: -nan cycles
cpu0_ITLB TOTAL        ACCESS:          0 HIT:          0 MISS:          0
cpu0_ITLB LOAD         ACCESS:          0 HIT:          0 MISS:          0
cpu0_ITLB RFO          ACCESS:          0 HIT:          0 MISS:          0
cpu0_ITLB PREFETCH     ACCESS:          0 HIT:          0 MISS:          0
cpu0_ITLB WRITE        ACCESS:          0 HIT:          0 MISS:          0
cpu0_ITLB TRANSLATION  ACCESS:          0 HIT:          0 MISS:          0
cpu0_ITLB PREFETCH REQUESTED:          0 ISSUED:          0 USEFUL:          0 USELESS:          0
cpu0_ITLB AVERAGE MISS LATENCY: -nan cycles
cpu0_L1D TOTAL        ACCESS:   49009079 HIT:   27837404 MISS:   21171675
cpu0_L1D LOAD         ACCESS:   11914263 HIT:    6143160 MISS:    5771103
cpu0_L1D RFO          ACCESS:          0 HIT:          0 MISS:          0
cpu0_L1D PREFETCH     ACCESS:    1107207 HIT:     120736 MISS:     986471
cpu0_L1D WRITE        ACCESS:   35839531 HIT:   21572946 MISS:   14266585
cpu0_L1D TRANSLATION  ACCESS:     148078 HIT:        562 MISS:     147516
cpu0_L1D PREFETCH REQUESTED:    6748367 ISSUED:    1107207 USEFUL:      77653 USELESS:          0
cpu0_L1D AVERAGE MISS LATENCY: 325.1 cycles
cpu0_L1D TOTAL        ACCESS:          0 HIT:          0 MISS:          0
cpu0_L1D LOAD         ACCESS:          0 HIT:          0 MISS:          0
cpu0_L1D RFO          ACCESS:          0 HIT:          0 MISS:          0
cpu0_L1D PREFETCH     ACCESS:          0 HIT:          0 MISS:          0
cpu0_L1D WRITE        ACCESS:          0 HIT:          0 MISS:          0
cpu0_L1D TRANSLATION  ACCESS:          0 HIT:          0 MISS:          0
cpu0_L1D PREFETCH REQUESTED:    6748367 ISSUED:    1107207 USEFUL:      77653 USELESS:          0
cpu0_L1D AVERAGE MISS LATENCY: 325.1 cycles
cpu0_L1I TOTAL        ACCESS:          0 HIT:          0 MISS:          0
cpu0_L1I LOAD         ACCESS:          0 HIT:          0 MISS:          0
cpu0_L1I RFO          ACCESS:          0 HIT:          0 MISS:          0
cpu0_L1I PREFETCH     ACCESS:          0 HIT:          0 MISS:          0
cpu0_L1I WRITE        ACCESS:          0 HIT:          0 MISS:          0
cpu0_L1I TRANSLATION  ACCESS:          0 HIT:          0 MISS:          0
cpu0_L1I PREFETCH REQUESTED:          0 ISSUED:          0 USEFUL:          0 USELESS:          0
cpu0_L1I AVERAGE MISS LATENCY: -nan cycles
cpu0_L1I TOTAL        ACCESS:          0 HIT:          0 MISS:          0
cpu0_L1I LOAD         ACCESS:          0 HIT:          0 MISS:          0
cpu0_L1I RFO          ACCESS:          0 HIT:          0 MISS:          0
cpu0_L1I PREFETCH     ACCESS:          0 HIT:          0 MISS:          0
cpu0_L1I WRITE        ACCESS:          0 HIT:          0 MISS:          0
cpu0_L1I TRANSLATION  ACCESS:          0 HIT:          0 MISS:          0
cpu0_L1I PREFETCH REQUESTED:          0 ISSUED:          0 USEFUL:          0 USELESS:          0
cpu0_L1I AVERAGE MISS LATENCY: -nan cycles
cpu0_L2C TOTAL        ACCESS:   32222518 HIT:   21462865 MISS:   10759653
cpu0_L2C LOAD         ACCESS:    2288780 HIT:     852904 MISS:    1435876
cpu0_L2C RFO          ACCESS:   13365911 HIT:    6136680 MISS:    7229231
cpu0_L2C PREFETCH     ACCESS:    3053923 HIT:     960499 MISS:    2093424
cpu0_L2C WRITE        ACCESS:   13366388 HIT:   13366388 MISS:          0
cpu0_L2C TRANSLATION  ACCESS:     147516 HIT:     146394 MISS:       1122
cpu0_L2C PREFETCH REQUESTED:    2142405 ISSUED:    2142399 USEFUL:     566697 USELESS:       1918
cpu0_L2C AVERAGE MISS LATENCY: 751.8 cycles
cpu0_L2C TOTAL        ACCESS:          0 HIT:          0 MISS:          0
cpu0_L2C LOAD         ACCESS:          0 HIT:          0 MISS:          0
cpu0_L2C RFO          ACCESS:          0 HIT:          0 MISS:          0
cpu0_L2C PREFETCH     ACCESS:          0 HIT:          0 MISS:          0
cpu0_L2C WRITE        ACCESS:          0 HIT:          0 MISS:          0
cpu0_L2C TRANSLATION  ACCESS:          0 HIT:          0 MISS:          0
cpu0_L2C PREFETCH REQUESTED:    2142405 ISSUED:    2142399 USEFUL:     566697 USELESS:       1918
cpu0_L2C AVERAGE MISS LATENCY: 751.8 cycles
cpu0_STLB TOTAL        ACCESS:     272629 HIT:     124697 MISS:     147932
cpu0_STLB LOAD         ACCESS:     272629 HIT:     124697 MISS:     147932
cpu0_STLB RFO          ACCESS:          0 HIT:          0 MISS:          0
cpu0_STLB PREFETCH     ACCESS:          0 HIT:          0 MISS:          0
cpu0_STLB WRITE        ACCESS:          0 HIT:          0 MISS:          0
cpu0_STLB TRANSLATION  ACCESS:          0 HIT:          0 MISS:          0
cpu0_STLB PREFETCH REQUESTED:          0 ISSUED:          0 USEFUL:          0 USELESS:          0
cpu0_STLB AVERAGE MISS LATENCY: 270 cycles
cpu0_STLB TOTAL        ACCESS:          0 HIT:          0 MISS:          0
cpu0_STLB LOAD         ACCESS:          0 HIT:          0 MISS:          0
cpu0_STLB RFO          ACCESS:          0 HIT:          0 MISS:          0
cpu0_STLB PREFETCH     ACCESS:          0 HIT:          0 MISS:          0
cpu0_STLB WRITE        ACCESS:          0 HIT:          0 MISS:          0
cpu0_STLB TRANSLATION  ACCESS:          0 HIT:          0 MISS:          0
cpu0_STLB PREFETCH REQUESTED:          0 ISSUED:          0 USEFUL:          0 USELESS:          0
cpu0_STLB AVERAGE MISS LATENCY: 270 cycles
cpu1_DTLB TOTAL        ACCESS:          0 HIT:          0 MISS:          0
cpu1_DTLB LOAD         ACCESS:          0 HIT:          0 MISS:          0
cpu1_DTLB RFO          ACCESS:          0 HIT:          0 MISS:          0
cpu1_DTLB PREFETCH     ACCESS:          0 HIT:          0 MISS:          0
cpu1_DTLB WRITE        ACCESS:          0 HIT:          0 MISS:          0
cpu1_DTLB TRANSLATION  ACCESS:          0 HIT:          0 MISS:          0
cpu1_DTLB PREFETCH REQUESTED:          0 ISSUED:          0 USEFUL:          0 USELESS:          0
cpu1_DTLB AVERAGE MISS LATENCY: 38.43 cycles
cpu1_DTLB TOTAL        ACCESS:  126750981 HIT:  126506364 MISS:     244617
cpu1_DTLB LOAD         ACCESS:  126750981 HIT:  126506364 MISS:     244617
cpu1_DTLB RFO          ACCESS:          0 HIT:          0 MISS:          0
cpu1_DTLB PREFETCH     ACCESS:          0 HIT:          0 MISS:          0
cpu1_DTLB WRITE        ACCESS:          0 HIT:          0 MISS:          0
cpu1_DTLB TRANSLATION  ACCESS:          0 HIT:          0 MISS:          0
cpu1_DTLB PREFETCH REQUESTED:          0 ISSUED:          0 USEFUL:          0 USELESS:          0
cpu1_DTLB AVERAGE MISS LATENCY: 38.43 cycles
cpu1_ITLB TOTAL        ACCESS:          0 HIT:          0 MISS:          0
cpu1_ITLB LOAD         ACCESS:          0 HIT:          0 MISS:          0
cpu1_ITLB RFO          ACCESS:          0 HIT:          0 MISS:          0
cpu1_ITLB PREFETCH     ACCESS:          0 HIT:          0 MISS:          0
cpu1_ITLB WRITE        ACCESS:          0 HIT:          0 MISS:          0
cpu1_ITLB TRANSLATION  ACCESS:          0 HIT:          0 MISS:          0
cpu1_ITLB PREFETCH REQUESTED:          0 ISSUED:          0 USEFUL:          0 USELESS:          0
cpu1_ITLB AVERAGE MISS LATENCY: 531.9 cycles
cpu1_ITLB TOTAL        ACCESS:    2237188 HIT:    2237180 MISS:          8
cpu1_ITLB LOAD         ACCESS:    2237188 HIT:    2237180 MISS:          8
cpu1_ITLB RFO          ACCESS:          0 HIT:          0 MISS:          0
cpu1_ITLB PREFETCH     ACCESS:          0 HIT:          0 MISS:          0
cpu1_ITLB WRITE        ACCESS:          0 HIT:          0 MISS:          0
cpu1_ITLB TRANSLATION  ACCESS:          0 HIT:          0 MISS:          0
cpu1_ITLB PREFETCH REQUESTED:          0 ISSUED:          0 USEFUL:          0 USELESS:          0
cpu1_ITLB AVERAGE MISS LATENCY: 531.9 cycles
cpu1_L1D TOTAL        ACCESS:          0 HIT:          0 MISS:          0
cpu1_L1D LOAD         ACCESS:          0 HIT:          0 MISS:          0
cpu1_L1D RFO          ACCESS:          0 HIT:          0 MISS:          0
cpu1_L1D PREFETCH     ACCESS:          0 HIT:          0 MISS:          0
cpu1_L1D WRITE        ACCESS:          0 HIT:          0 MISS:          0
cpu1_L1D TRANSLATION  ACCESS:          0 HIT:          0 MISS:          0
cpu1_L1D PREFETCH REQUESTED:     157840 ISSUED:      95777 USEFUL:       1730 USELESS:         56
cpu1_L1D AVERAGE MISS LATENCY: 150.3 cycles
cpu1_L1D TOTAL        ACCESS:  180868254 HIT:  171088080 MISS:    9780174
cpu1_L1D LOAD         ACCESS:  106554491 HIT:  102328765 MISS:    4225726
cpu1_L1D RFO          ACCESS:          0 HIT:          0 MISS:          0
cpu1_L1D PREFETCH     ACCESS:      95777 HIT:      44463 MISS:      51314
cpu1_L1D WRITE        ACCESS:   74180717 HIT:   68685941 MISS:    5494776
cpu1_L1D TRANSLATION  ACCESS:      37269 HIT:      28911 MISS:       8358
cpu1_L1D PREFETCH REQUESTED:     157840 ISSUED:      95777 USEFUL:       1730 USELESS:         56
cpu1_L1D AVERAGE MISS LATENCY: 150.3 cycles
cpu1_L1I TOTAL        ACCESS:          0 HIT:          0 MISS:          0
cpu1_L1I LOAD         ACCESS:          0 HIT:          0 MISS:          0
cpu1_L1I RFO          ACCESS:          0 HIT:          0 MISS:          0
cpu1_L1I PREFETCH     ACCESS:          0 HIT:          0 MISS:          0
cpu1_L1I WRITE        ACCESS:          0 HIT:          0 MISS:          0
cpu1_L1I TRANSLATION  ACCESS:          0 HIT:          0 MISS:          0
cpu1_L1I PREFETCH REQUESTED:          0 ISSUED:          0 USEFUL:          0 USELESS:          0
cpu1_L1I AVERAGE MISS LATENCY: 651.6 cycles
cpu1_L1I TOTAL        ACCESS:    2962459 HIT:    2962373 MISS:         86
cpu1_L1I LOAD         ACCESS:    2962459 HIT:    2962373 MISS:         86
cpu1_L1I RFO          ACCESS:          0 HIT:          0 MISS:          0
cpu1_L1I PREFETCH     ACCESS:          0 HIT:          0 MISS:          0
cpu1_L1I WRITE        ACCESS:          0 HIT:          0 MISS:          0
cpu1_L1I TRANSLATION  ACCESS:          0 HIT:          0 MISS:          0
cpu1_L1I PREFETCH REQUESTED:          0 ISSUED:          0 USEFUL:          0 USELESS:          0
cpu1_L1I AVERAGE MISS LATENCY: 651.6 cycles
cpu1_L2C TOTAL        ACCESS:          0 HIT:          0 MISS:          0
cpu1_L2C LOAD         ACCESS:          0 HIT:          0 MISS:          0
cpu1_L2C RFO          ACCESS:          0 HIT:          0 MISS:          0
cpu1_L2C PREFETCH     ACCESS:          0 HIT:          0 MISS:          0
cpu1_L2C WRITE        ACCESS:          0 HIT:          0 MISS:          0
cpu1_L2C TRANSLATION  ACCESS:          0 HIT:          0 MISS:          0
cpu1_L2C PREFETCH REQUESTED:    3173494 ISSUED:    3173494 USEFUL:     877839 USELESS:      24236
cpu1_L2C AVERAGE MISS LATENCY: 472.3 cycles
cpu1_L2C TOTAL        ACCESS:    5965876 HIT:    1693401 MISS:    4272475
cpu1_L2C LOAD         ACCESS:    1181944 HIT:     378785 MISS:     803159
cpu1_L2C RFO          ACCESS:     788591 HIT:       1512 MISS:     787079
cpu1_L2C PREFETCH     ACCESS:    3198290 HIT:     525667 MISS:    2672623
cpu1_L2C WRITE        ACCESS:     788693 HIT:     787086 MISS:       1607
cpu1_L2C TRANSLATION  ACCESS:       8358 HIT:        351 MISS:       8007
cpu1_L2C PREFETCH REQUESTED:    3173494 ISSUED:    3173494 USEFUL:     877839 USELESS:      24236
cpu1_L2C AVERAGE MISS LATENCY: 472.3 cycles
cpu1_STLB TOTAL        ACCESS:          0 HIT:          0 MISS:          0
cpu1_STLB LOAD         ACCESS:          0 HIT:          0 MISS:          0
cpu1_STLB RFO          ACCESS:          0 HIT:          0 MISS:          0
cpu1_STLB PREFETCH     ACCESS:          0 HIT:          0 MISS:          0
cpu1_STLB WRITE        ACCESS:          0 HIT:          0 MISS:          0
cpu1_STLB TRANSLATION  ACCESS:          0 HIT:          0 MISS:          0
cpu1_STLB PREFETCH REQUESTED:          0 ISSUED:          0 USEFUL:          0 USELESS:          0
cpu1_STLB AVERAGE MISS LATENCY: 381.3 cycles
cpu1_STLB TOTAL        ACCESS:      43299 HIT:       6089 MISS:      37210
cpu1_STLB LOAD         ACCESS:      43299 HIT:       6089 MISS:      37210
cpu1_STLB RFO          ACCESS:          0 HIT:          0 MISS:          0
cpu1_STLB PREFETCH     ACCESS:          0 HIT:          0 MISS:          0
cpu1_STLB WRITE        ACCESS:          0 HIT:          0 MISS:          0
cpu1_STLB TRANSLATION  ACCESS:          0 HIT:          0 MISS:          0
cpu1_STLB PREFETCH REQUESTED:          0 ISSUED:          0 USEFUL:          0 USELESS:          0
cpu1_STLB AVERAGE MISS LATENCY: 381.3 cycles

Region of Interest Statistics

CPU 0 cumulative IPC: 0.3551 instructions: 200000000 cycles: 563199680
CPU 0 Branch Prediction Accuracy: 97.1% MPKI: 0.5195 Average ROB Occupancy at Mispredict: 313.8
Branch type MPKI
BRANCH_DIRECT_JUMP: 0
BRANCH_INDIRECT: 0
BRANCH_CONDITIONAL: 0.519
BRANCH_DIRECT_CALL: 0
BRANCH_INDIRECT_CALL: 0
BRANCH_RETURN: 0


CPU 1 cumulative IPC: 2.67 instructions: 200000001 cycles: 74900987
CPU 1 Branch Prediction Accuracy: 97.32% MPKI: 4.451 Average ROB Occupancy at Mispredict: 77.29
Branch type MPKI
BRANCH_DIRECT_JUMP: 0.16
BRANCH_INDIRECT: 0
BRANCH_CONDITIONAL: 3.27
BRANCH_DIRECT_CALL: 0
BRANCH_INDIRECT_CALL: 0
BRANCH_RETURN: 1.02

cpu0 INVINCIBLE ACTIVATED: 0 FREED: 0
LLC LOAD         IN CARTEL ACCESSES:          0 BLOCKED ACCESSES:          0
LLC RFO          IN CARTEL ACCESSES:          0 BLOCKED ACCESSES:          0
LLC PREFETCH     IN CARTEL ACCESSES:          0 BLOCKED ACCESSES:          0
LLC WRITE        IN CARTEL ACCESSES:          0 BLOCKED ACCESSES:          0
LLC TRANSLATION  IN CARTEL ACCESSES:          0 BLOCKED ACCESSES:          0
LLC TOTAL       IN CARTEL ACCESS:   17555927 IN CARTEL HIT:    8201765 IN CARTEL MISS:    9354162
LLC LOAD         IN CARTEL ACCESS:    1380509 IN CARTEL HIT:     183947 IN CARTEL MISS:    1196562
LLC RFO          IN CARTEL ACCESS:    7229229 IN CARTEL HIT:     427912 IN CARTEL MISS:    6801317
LLC PREFETCH     IN CARTEL ACCESS:    1716666 IN CARTEL HIT:     364016 IN CARTEL MISS:    1352650
LLC WRITE        IN CARTEL ACCESS:    7228401 IN CARTEL HIT:    7225739 IN CARTEL MISS:       2662
LLC TRANSLATION  IN CARTEL ACCESS:       1122 IN CARTEL HIT:        151 IN CARTEL MISS:        971
LLC TOTAL        ACCESS:   17555927 HIT:    8201765 MISS:    9354162
LLC LOAD         ACCESS:    1380509 HIT:     183947 MISS:    1196562
LLC RFO          ACCESS:    7229229 HIT:     427912 MISS:    6801317
LLC PREFETCH     ACCESS:    1716666 HIT:     364016 MISS:    1352650
LLC WRITE        ACCESS:    7228401 HIT:    7225739 MISS:       2662
LLC TRANSLATION  ACCESS:       1122 HIT:        151 MISS:        971
LLC PREFETCH REQUESTED:          0 ISSUED:          0 USEFUL:          0 USELESS:          0
LLC AVERAGE MISS LATENCY: 891.7 cycles
cpu1 INVINCIBLE ACTIVATED: 0 FREED: 0
LLC LOAD         IN CARTEL ACCESSES:          0 BLOCKED ACCESSES:          0
LLC RFO          IN CARTEL ACCESSES:          0 BLOCKED ACCESSES:          0
LLC PREFETCH     IN CARTEL ACCESSES:          0 BLOCKED ACCESSES:          0
LLC WRITE        IN CARTEL ACCESSES:          0 BLOCKED ACCESSES:          0
LLC TRANSLATION  IN CARTEL ACCESSES:          0 BLOCKED ACCESSES:          0
LLC TOTAL       IN CARTEL ACCESS:      31354 IN CARTEL HIT:       1049 IN CARTEL MISS:      30305
LLC LOAD         IN CARTEL ACCESS:        976 IN CARTEL HIT:          0 IN CARTEL MISS:        976
LLC RFO          IN CARTEL ACCESS:       8900 IN CARTEL HIT:         37 IN CARTEL MISS:       8863
LLC PREFETCH     IN CARTEL ACCESS:      12810 IN CARTEL HIT:          0 IN CARTEL MISS:      12810
LLC WRITE        IN CARTEL ACCESS:       8616 IN CARTEL HIT:       1012 IN CARTEL MISS:       7604
LLC TRANSLATION  IN CARTEL ACCESS:         52 IN CARTEL HIT:          0 IN CARTEL MISS:         52
LLC TOTAL        ACCESS:      31354 HIT:       1049 MISS:      30305
LLC LOAD         ACCESS:        976 HIT:          0 MISS:        976
LLC RFO          ACCESS:       8900 HIT:         37 MISS:       8863
LLC PREFETCH     ACCESS:      12810 HIT:          0 MISS:      12810
LLC WRITE        ACCESS:       8616 HIT:       1012 MISS:       7604
LLC TRANSLATION  ACCESS:         52 HIT:          0 MISS:         52
LLC PREFETCH REQUESTED:          0 ISSUED:          0 USEFUL:          0 USELESS:          0
LLC AVERAGE MISS LATENCY: 891.7 cycles
cpu0_DTLB TOTAL        ACCESS:   35931306 HIT:   35454863 MISS:     476443
cpu0_DTLB LOAD         ACCESS:   35931306 HIT:   35454863 MISS:     476443
cpu0_DTLB RFO          ACCESS:          0 HIT:          0 MISS:          0
cpu0_DTLB PREFETCH     ACCESS:          0 HIT:          0 MISS:          0
cpu0_DTLB WRITE        ACCESS:          0 HIT:          0 MISS:          0
cpu0_DTLB TRANSLATION  ACCESS:          0 HIT:          0 MISS:          0
cpu0_DTLB PREFETCH REQUESTED:          0 ISSUED:          0 USEFUL:          0 USELESS:          0
cpu0_DTLB AVERAGE MISS LATENCY: 60.07 cycles
cpu0_DTLB TOTAL        ACCESS:          0 HIT:          0 MISS:          0
cpu0_DTLB LOAD         ACCESS:          0 HIT:          0 MISS:          0
cpu0_DTLB RFO          ACCESS:          0 HIT:          0 MISS:          0
cpu0_DTLB PREFETCH     ACCESS:          0 HIT:          0 MISS:          0
cpu0_DTLB WRITE        ACCESS:          0 HIT:          0 MISS:          0
cpu0_DTLB TRANSLATION  ACCESS:          0 HIT:          0 MISS:          0
cpu0_DTLB PREFETCH REQUESTED:          0 ISSUED:          0 USEFUL:          0 USELESS:          0
cpu0_DTLB AVERAGE MISS LATENCY: 60.07 cycles
cpu0_ITLB TOTAL        ACCESS:          0 HIT:          0 MISS:          0
cpu0_ITLB LOAD         ACCESS:          0 HIT:          0 MISS:          0
cpu0_ITLB RFO          ACCESS:          0 HIT:          0 MISS:          0
cpu0_ITLB PREFETCH     ACCESS:          0 HIT:          0 MISS:          0
cpu0_ITLB WRITE        ACCESS:          0 HIT:          0 MISS:          0
cpu0_ITLB TRANSLATION  ACCESS:          0 HIT:          0 MISS:          0
cpu0_ITLB PREFETCH REQUESTED:          0 ISSUED:          0 USEFUL:          0 USELESS:          0
cpu0_ITLB AVERAGE MISS LATENCY: -nan cycles
cpu0_ITLB TOTAL        ACCESS:          0 HIT:          0 MISS:          0
cpu0_ITLB LOAD         ACCESS:          0 HIT:          0 MISS:          0
cpu0_ITLB RFO          ACCESS:          0 HIT:          0 MISS:          0
cpu0_ITLB PREFETCH     ACCESS:          0 HIT:          0 MISS:          0
cpu0_ITLB WRITE        ACCESS:          0 HIT:          0 MISS:          0
cpu0_ITLB TRANSLATION  ACCESS:          0 HIT:          0 MISS:          0
cpu0_ITLB PREFETCH REQUESTED:          0 ISSUED:          0 USEFUL:          0 USELESS:          0
cpu0_ITLB AVERAGE MISS LATENCY: -nan cycles
cpu0_L1D TOTAL        ACCESS:   49009079 HIT:   27837404 MISS:   21171675
cpu0_L1D LOAD         ACCESS:   11914263 HIT:    6143160 MISS:    5771103
cpu0_L1D RFO          ACCESS:          0 HIT:          0 MISS:          0
cpu0_L1D PREFETCH     ACCESS:    1107207 HIT:     120736 MISS:     986471
cpu0_L1D WRITE        ACCESS:   35839531 HIT:   21572946 MISS:   14266585
cpu0_L1D TRANSLATION  ACCESS:     148078 HIT:        562 MISS:     147516
cpu0_L1D PREFETCH REQUESTED:    6748367 ISSUED:    1107207 USEFUL:      77653 USELESS:          0
cpu0_L1D AVERAGE MISS LATENCY: 325.1 cycles
cpu0_L1D TOTAL        ACCESS:          0 HIT:          0 MISS:          0
cpu0_L1D LOAD         ACCESS:          0 HIT:          0 MISS:          0
cpu0_L1D RFO          ACCESS:          0 HIT:          0 MISS:          0
cpu0_L1D PREFETCH     ACCESS:          0 HIT:          0 MISS:          0
cpu0_L1D WRITE        ACCESS:          0 HIT:          0 MISS:          0
cpu0_L1D TRANSLATION  ACCESS:          0 HIT:          0 MISS:          0
cpu0_L1D PREFETCH REQUESTED:    6748367 ISSUED:    1107207 USEFUL:      77653 USELESS:          0
cpu0_L1D AVERAGE MISS LATENCY: 325.1 cycles
cpu0_L1I TOTAL        ACCESS:          0 HIT:          0 MISS:          0
cpu0_L1I LOAD         ACCESS:          0 HIT:          0 MISS:          0
cpu0_L1I RFO          ACCESS:          0 HIT:          0 MISS:          0
cpu0_L1I PREFETCH     ACCESS:          0 HIT:          0 MISS:          0
cpu0_L1I WRITE        ACCESS:          0 HIT:          0 MISS:          0
cpu0_L1I TRANSLATION  ACCESS:          0 HIT:          0 MISS:          0
cpu0_L1I PREFETCH REQUESTED:          0 ISSUED:          0 USEFUL:          0 USELESS:          0
cpu0_L1I AVERAGE MISS LATENCY: -nan cycles
cpu0_L1I TOTAL        ACCESS:          0 HIT:          0 MISS:          0
cpu0_L1I LOAD         ACCESS:          0 HIT:          0 MISS:          0
cpu0_L1I RFO          ACCESS:          0 HIT:          0 MISS:          0
cpu0_L1I PREFETCH     ACCESS:          0 HIT:          0 MISS:          0
cpu0_L1I WRITE        ACCESS:          0 HIT:          0 MISS:          0
cpu0_L1I TRANSLATION  ACCESS:          0 HIT:          0 MISS:          0
cpu0_L1I PREFETCH REQUESTED:          0 ISSUED:          0 USEFUL:          0 USELESS:          0
cpu0_L1I AVERAGE MISS LATENCY: -nan cycles
cpu0_L2C TOTAL        ACCESS:   32222518 HIT:   21462865 MISS:   10759653
cpu0_L2C LOAD         ACCESS:    2288780 HIT:     852904 MISS:    1435876
cpu0_L2C RFO          ACCESS:   13365911 HIT:    6136680 MISS:    7229231
cpu0_L2C PREFETCH     ACCESS:    3053923 HIT:     960499 MISS:    2093424
cpu0_L2C WRITE        ACCESS:   13366388 HIT:   13366388 MISS:          0
cpu0_L2C TRANSLATION  ACCESS:     147516 HIT:     146394 MISS:       1122
cpu0_L2C PREFETCH REQUESTED:    2142405 ISSUED:    2142399 USEFUL:     566697 USELESS:       1918
cpu0_L2C AVERAGE MISS LATENCY: 751.8 cycles
cpu0_L2C TOTAL        ACCESS:          0 HIT:          0 MISS:          0
cpu0_L2C LOAD         ACCESS:          0 HIT:          0 MISS:          0
cpu0_L2C RFO          ACCESS:          0 HIT:          0 MISS:          0
cpu0_L2C PREFETCH     ACCESS:          0 HIT:          0 MISS:          0
cpu0_L2C WRITE        ACCESS:          0 HIT:          0 MISS:          0
cpu0_L2C TRANSLATION  ACCESS:          0 HIT:          0 MISS:          0
cpu0_L2C PREFETCH REQUESTED:    2142405 ISSUED:    2142399 USEFUL:     566697 USELESS:       1918
cpu0_L2C AVERAGE MISS LATENCY: 751.8 cycles
cpu0_STLB TOTAL        ACCESS:     272629 HIT:     124697 MISS:     147932
cpu0_STLB LOAD         ACCESS:     272629 HIT:     124697 MISS:     147932
cpu0_STLB RFO          ACCESS:          0 HIT:          0 MISS:          0
cpu0_STLB PREFETCH     ACCESS:          0 HIT:          0 MISS:          0
cpu0_STLB WRITE        ACCESS:          0 HIT:          0 MISS:          0
cpu0_STLB TRANSLATION  ACCESS:          0 HIT:          0 MISS:          0
cpu0_STLB PREFETCH REQUESTED:          0 ISSUED:          0 USEFUL:          0 USELESS:          0
cpu0_STLB AVERAGE MISS LATENCY: 270 cycles
cpu0_STLB TOTAL        ACCESS:          0 HIT:          0 MISS:          0
cpu0_STLB LOAD         ACCESS:          0 HIT:          0 MISS:          0
cpu0_STLB RFO          ACCESS:          0 HIT:          0 MISS:          0
cpu0_STLB PREFETCH     ACCESS:          0 HIT:          0 MISS:          0
cpu0_STLB WRITE        ACCESS:          0 HIT:          0 MISS:          0
cpu0_STLB TRANSLATION  ACCESS:          0 HIT:          0 MISS:          0
cpu0_STLB PREFETCH REQUESTED:          0 ISSUED:          0 USEFUL:          0 USELESS:          0
cpu0_STLB AVERAGE MISS LATENCY: 270 cycles
cpu1_DTLB TOTAL        ACCESS:          0 HIT:          0 MISS:          0
cpu1_DTLB LOAD         ACCESS:          0 HIT:          0 MISS:          0
cpu1_DTLB RFO          ACCESS:          0 HIT:          0 MISS:          0
cpu1_DTLB PREFETCH     ACCESS:          0 HIT:          0 MISS:          0
cpu1_DTLB WRITE        ACCESS:          0 HIT:          0 MISS:          0
cpu1_DTLB TRANSLATION  ACCESS:          0 HIT:          0 MISS:          0
cpu1_DTLB PREFETCH REQUESTED:          0 ISSUED:          0 USEFUL:          0 USELESS:          0
cpu1_DTLB AVERAGE MISS LATENCY: 38.43 cycles
cpu1_DTLB TOTAL        ACCESS:   23695507 HIT:   23692280 MISS:       3227
cpu1_DTLB LOAD         ACCESS:   23695507 HIT:   23692280 MISS:       3227
cpu1_DTLB RFO          ACCESS:          0 HIT:          0 MISS:          0
cpu1_DTLB PREFETCH     ACCESS:          0 HIT:          0 MISS:          0
cpu1_DTLB WRITE        ACCESS:          0 HIT:          0 MISS:          0
cpu1_DTLB TRANSLATION  ACCESS:          0 HIT:          0 MISS:          0
cpu1_DTLB PREFETCH REQUESTED:          0 ISSUED:          0 USEFUL:          0 USELESS:          0
cpu1_DTLB AVERAGE MISS LATENCY: 38.43 cycles
cpu1_ITLB TOTAL        ACCESS:          0 HIT:          0 MISS:          0
cpu1_ITLB LOAD         ACCESS:          0 HIT:          0 MISS:          0
cpu1_ITLB RFO          ACCESS:          0 HIT:          0 MISS:          0
cpu1_ITLB PREFETCH     ACCESS:          0 HIT:          0 MISS:          0
cpu1_ITLB WRITE        ACCESS:          0 HIT:          0 MISS:          0
cpu1_ITLB TRANSLATION  ACCESS:          0 HIT:          0 MISS:          0
cpu1_ITLB PREFETCH REQUESTED:          0 ISSUED:          0 USEFUL:          0 USELESS:          0
cpu1_ITLB AVERAGE MISS LATENCY: 531.9 cycles
cpu1_ITLB TOTAL        ACCESS:    1864833 HIT:    1864833 MISS:          0
cpu1_ITLB LOAD         ACCESS:    1864833 HIT:    1864833 MISS:          0
cpu1_ITLB RFO          ACCESS:          0 HIT:          0 MISS:          0
cpu1_ITLB PREFETCH     ACCESS:          0 HIT:          0 MISS:          0
cpu1_ITLB WRITE        ACCESS:          0 HIT:          0 MISS:          0
cpu1_ITLB TRANSLATION  ACCESS:          0 HIT:          0 MISS:          0
cpu1_ITLB PREFETCH REQUESTED:          0 ISSUED:          0 USEFUL:          0 USELESS:          0
cpu1_ITLB AVERAGE MISS LATENCY: 531.9 cycles
cpu1_L1D TOTAL        ACCESS:          0 HIT:          0 MISS:          0
cpu1_L1D LOAD         ACCESS:          0 HIT:          0 MISS:          0
cpu1_L1D RFO          ACCESS:          0 HIT:          0 MISS:          0
cpu1_L1D PREFETCH     ACCESS:          0 HIT:          0 MISS:          0
cpu1_L1D WRITE        ACCESS:          0 HIT:          0 MISS:          0
cpu1_L1D TRANSLATION  ACCESS:          0 HIT:          0 MISS:          0
cpu1_L1D PREFETCH REQUESTED:     157840 ISSUED:      95777 USEFUL:       1730 USELESS:         56
cpu1_L1D AVERAGE MISS LATENCY: 150.3 cycles
cpu1_L1D TOTAL        ACCESS:   36588973 HIT:   36512741 MISS:      76232
cpu1_L1D LOAD         ACCESS:   21869581 HIT:   21832972 MISS:      36609
cpu1_L1D RFO          ACCESS:          0 HIT:          0 MISS:          0
cpu1_L1D PREFETCH     ACCESS:      32079 HIT:      32056 MISS:         23
cpu1_L1D WRITE        ACCESS:   14686846 HIT:   14647299 MISS:      39547
cpu1_L1D TRANSLATION  ACCESS:        467 HIT:        414 MISS:         53
cpu1_L1D PREFETCH REQUESTED:     157840 ISSUED:      95777 USEFUL:       1730 USELESS:         56
cpu1_L1D AVERAGE MISS LATENCY: 150.3 cycles
cpu1_L1I TOTAL        ACCESS:          0 HIT:          0 MISS:          0
cpu1_L1I LOAD         ACCESS:          0 HIT:          0 MISS:          0
cpu1_L1I RFO          ACCESS:          0 HIT:          0 MISS:          0
cpu1_L1I PREFETCH     ACCESS:          0 HIT:          0 MISS:          0
cpu1_L1I WRITE        ACCESS:          0 HIT:          0 MISS:          0
cpu1_L1I TRANSLATION  ACCESS:          0 HIT:          0 MISS:          0
cpu1_L1I PREFETCH REQUESTED:          0 ISSUED:          0 USEFUL:          0 USELESS:          0
cpu1_L1I AVERAGE MISS LATENCY: 651.6 cycles
cpu1_L1I TOTAL        ACCESS:    2469202 HIT:    2469202 MISS:          0
cpu1_L1I LOAD         ACCESS:    2469202 HIT:    2469202 MISS:          0
cpu1_L1I RFO          ACCESS:          0 HIT:          0 MISS:          0
cpu1_L1I PREFETCH     ACCESS:          0 HIT:          0 MISS:          0
cpu1_L1I WRITE        ACCESS:          0 HIT:          0 MISS:          0
cpu1_L1I TRANSLATION  ACCESS:          0 HIT:          0 MISS:          0
cpu1_L1I PREFETCH REQUESTED:          0 ISSUED:          0 USEFUL:          0 USELESS:          0
cpu1_L1I AVERAGE MISS LATENCY: 651.6 cycles
cpu1_L2C TOTAL        ACCESS:          0 HIT:          0 MISS:          0
cpu1_L2C LOAD         ACCESS:          0 HIT:          0 MISS:          0
cpu1_L2C RFO          ACCESS:          0 HIT:          0 MISS:          0
cpu1_L2C PREFETCH     ACCESS:          0 HIT:          0 MISS:          0
cpu1_L2C WRITE        ACCESS:          0 HIT:          0 MISS:          0
cpu1_L2C TRANSLATION  ACCESS:          0 HIT:          0 MISS:          0
cpu1_L2C PREFETCH REQUESTED:    3173494 ISSUED:    3173494 USEFUL:     877839 USELESS:      24236
cpu1_L2C AVERAGE MISS LATENCY: 472.3 cycles
cpu1_L2C TOTAL        ACCESS:      69175 HIT:      36259 MISS:      32916
cpu1_L2C LOAD         ACCESS:      13487 HIT:      10188 MISS:       3299
cpu1_L2C RFO          ACCESS:       9231 HIT:        331 MISS:       8900
cpu1_L2C PREFETCH     ACCESS:      37171 HIT:      16506 MISS:      20665
cpu1_L2C WRITE        ACCESS:       9233 HIT:       9233 MISS:          0
cpu1_L2C TRANSLATION  ACCESS:         53 HIT:          1 MISS:         52
cpu1_L2C PREFETCH REQUESTED:    3173494 ISSUED:    3173494 USEFUL:     877839 USELESS:      24236
cpu1_L2C AVERAGE MISS LATENCY: 472.3 cycles
cpu1_STLB TOTAL        ACCESS:          0 HIT:          0 MISS:          0
cpu1_STLB LOAD         ACCESS:          0 HIT:          0 MISS:          0
cpu1_STLB RFO          ACCESS:          0 HIT:          0 MISS:          0
cpu1_STLB PREFETCH     ACCESS:          0 HIT:          0 MISS:          0
cpu1_STLB WRITE        ACCESS:          0 HIT:          0 MISS:          0
cpu1_STLB TRANSLATION  ACCESS:          0 HIT:          0 MISS:          0
cpu1_STLB PREFETCH REQUESTED:          0 ISSUED:          0 USEFUL:          0 USELESS:          0
cpu1_STLB AVERAGE MISS LATENCY: 381.3 cycles
cpu1_STLB TOTAL        ACCESS:        490 HIT:         24 MISS:        466
cpu1_STLB LOAD         ACCESS:        490 HIT:         24 MISS:        466
cpu1_STLB RFO          ACCESS:          0 HIT:          0 MISS:          0
cpu1_STLB PREFETCH     ACCESS:          0 HIT:          0 MISS:          0
cpu1_STLB WRITE        ACCESS:          0 HIT:          0 MISS:          0
cpu1_STLB TRANSLATION  ACCESS:          0 HIT:          0 MISS:          0
cpu1_STLB PREFETCH REQUESTED:          0 ISSUED:          0 USEFUL:          0 USELESS:          0
cpu1_STLB AVERAGE MISS LATENCY: 381.3 cycles

DRAM Statistics

Channel 0 RQ ROW_BUFFER_HIT:     466578
  ROW_BUFFER_MISS:    5066490
 AVG DBUS CONGESTED CYCLE: 3.99

Channel 0 WQ ROW_BUFFER_HIT:      60756
  ROW_BUFFER_MISS:    3732525
  FULL:          0

Channel 1 RQ ROW_BUFFER_HIT:     469701
  ROW_BUFFER_MISS:    5064871
 AVG DBUS CONGESTED CYCLE: 3.99

Channel 1 WQ ROW_BUFFER_HIT:      61652
  ROW_BUFFER_MISS:    3732837
  FULL:          0
