WARNING: physical memory size is smaller than virtual memory size.

*** ChampSim Multicore Out-of-Order Simulator ***
Warmup Instructions: 20000
Simulation Instructions: 50000
Number of CPUs: 4
Page size: 4096

Off-chip DRAM Size: 4 GiB Channels: 1 Width: 64-bit Data Race: 3200 MT/s
name LLC
num_set 1024
NUM_WAY 4
MSHR_SIZE 64
offset bits 6
name LLC
num_set 1024
NUM_WAY 4
MSHR_SIZE 64
offset bits 6
name LLC
num_set 1024
NUM_WAY 4
MSHR_SIZE 64
offset bits 6
Warmup finished CPU 1 instructions: 20003 cycles: 5103 cumulative IPC: 3.92 (Simulation time: 00 hr 00 min 00 sec)
Warmup finished CPU 2 instructions: 20001 cycles: 5581 cumulative IPC: 3.584 (Simulation time: 00 hr 00 min 00 sec)
name LLC
num_set 1024
NUM_WAY 4
MSHR_SIZE 64
offset bits 6
name LLC
num_set 1024
NUM_WAY 4
MSHR_SIZE 64
offset bits 6
Warmup finished CPU 0 instructions: 20003 cycles: 6511 cumulative IPC: 3.072 (Simulation time: 00 hr 00 min 00 sec)
name cpu1_L1D
num_set 128
NUM_WAY 12
MSHR_SIZE 64
offset bits 6
name LLC
num_set 1024
NUM_WAY 4
MSHR_SIZE 64
offset bits 6
name LLC
num_set 1024
NUM_WAY 4
MSHR_SIZE 64
offset bits 6
name LLC
num_set 1024
NUM_WAY 4
MSHR_SIZE 64
offset bits 6
name LLC
num_set 1024
NUM_WAY 4
MSHR_SIZE 64
offset bits 6
name LLC
num_set 1024
NUM_WAY 4
MSHR_SIZE 64
offset bits 6
name LLC
num_set 1024
NUM_WAY 4
MSHR_SIZE 64
offset bits 6
name LLC
num_set 1024
NUM_WAY 4
MSHR_SIZE 64
offset bits 6
name LLC
num_set 1024
NUM_WAY 4
MSHR_SIZE 64
offset bits 6
name LLC
num_set 1024
NUM_WAY 4
MSHR_SIZE 64
offset bits 6
name LLC
num_set 1024
NUM_WAY 4
MSHR_SIZE 64
offset bits 6
name LLC
num_set 1024
NUM_WAY 4
MSHR_SIZE 64
offset bits 6
name LLC
num_set 1024
NUM_WAY 4
MSHR_SIZE 64
offset bits 6
name LLC
num_set 1024
NUM_WAY 4
MSHR_SIZE 64
offset bits 6
name LLC
num_set 1024
NUM_WAY 4
MSHR_SIZE 64
offset bits 6
name cpu1_L1D
num_set 128
NUM_WAY 12
MSHR_SIZE 64
offset bits 6
name LLC
num_set 1024
NUM_WAY 4
MSHR_SIZE 64
offset bits 6
name cpu1_L1D
num_set 128
NUM_WAY 12
MSHR_SIZE 64
offset bits 6
name LLC
num_set 1024
NUM_WAY 4
MSHR_SIZE 64
offset bits 6
name LLC
num_set 1024
NUM_WAY 4
MSHR_SIZE 64
offset bits 6
name LLC
num_set 1024
NUM_WAY 4
MSHR_SIZE 64
offset bits 6
name LLC
num_set 1024
NUM_WAY 4
MSHR_SIZE 64
offset bits 6
name LLC
num_set 1024
NUM_WAY 4
MSHR_SIZE 64
offset bits 6
name LLC
num_set 1024
NUM_WAY 4
MSHR_SIZE 64
offset bits 6
name LLC
num_set 1024
NUM_WAY 4
MSHR_SIZE 64
offset bits 6
name LLC
num_set 1024
NUM_WAY 4
MSHR_SIZE 64
offset bits 6
name cpu1_L1D
num_set 128
NUM_WAY 12
MSHR_SIZE 64
offset bits 6
name LLC
num_set 1024
NUM_WAY 4
MSHR_SIZE 64
offset bits 6
name LLC
num_set 1024
NUM_WAY 4
MSHR_SIZE 64
offset bits 6
name LLC
num_set 1024
NUM_WAY 4
MSHR_SIZE 64
offset bits 6
name cpu1_L1D
num_set 128
NUM_WAY 12
MSHR_SIZE 64
offset bits 6
name cpu1_L1D
num_set 128
NUM_WAY 12
MSHR_SIZE 64
offset bits 6
name cpu1_L1D
num_set 128
NUM_WAY 12
MSHR_SIZE 64
offset bits 6
name cpu1_L1D
num_set 128
NUM_WAY 12
MSHR_SIZE 64
offset bits 6
name cpu1_L1D
num_set 128
NUM_WAY 12
MSHR_SIZE 64
offset bits 6
name cpu1_L1D
num_set 128
NUM_WAY 12
MSHR_SIZE 64
offset bits 6
name cpu1_L1D
num_set 128
NUM_WAY 12
MSHR_SIZE 64
offset bits 6
name cpu1_L1D
num_set 128
NUM_WAY 12
MSHR_SIZE 64
offset bits 6
name cpu1_L1D
num_set 128
NUM_WAY 12
MSHR_SIZE 64
offset bits 6
name LLC
num_set 1024
NUM_WAY 4
MSHR_SIZE 64
offset bits 6
name cpu1_L1D
num_set 128
NUM_WAY 12
MSHR_SIZE 64
offset bits 6
name cpu1_L1D
num_set 128
NUM_WAY 12
MSHR_SIZE 64
offset bits 6
name cpu1_L1D
num_set 128
NUM_WAY 12
MSHR_SIZE 64
offset bits 6
name cpu1_L1D
num_set 128
NUM_WAY 12
MSHR_SIZE 64
offset bits 6
name cpu1_L1D
num_set 128
NUM_WAY 12
MSHR_SIZE 64
offset bits 6
name cpu1_L1D
num_set 128
NUM_WAY 12
MSHR_SIZE 64
offset bits 6
name cpu1_L1D
num_set 128
NUM_WAY 12
MSHR_SIZE 64
offset bits 6
name LLC
num_set 1024
NUM_WAY 4
MSHR_SIZE 64
offset bits 6
name cpu1_L1D
num_set 128
NUM_WAY 12
MSHR_SIZE 64
offset bits 6
name cpu1_L1D
num_set 128
NUM_WAY 12
MSHR_SIZE 64
offset bits 6
name cpu1_L1D
num_set 128
NUM_WAY 12
MSHR_SIZE 64
offset bits 6
name cpu1_L1D
num_set 128
NUM_WAY 12
MSHR_SIZE 64
offset bits 6
name LLC
num_set 1024
NUM_WAY 4
MSHR_SIZE 64
offset bits 6
name cpu1_L1D
num_set 128
NUM_WAY 12
MSHR_SIZE 64
offset bits 6
name LLC
num_set 1024
NUM_WAY 4
MSHR_SIZE 64
offset bits 6
name LLC
num_set 1024
NUM_WAY 4
MSHR_SIZE 64
offset bits 6
name LLC
num_set 1024
NUM_WAY 4
MSHR_SIZE 64
offset bits 6
name LLC
num_set 1024
NUM_WAY 4
MSHR_SIZE 64
offset bits 6
name cpu1_L1D
num_set 128
NUM_WAY 12
MSHR_SIZE 64
offset bits 6
name cpu1_L1D
num_set 128
NUM_WAY 12
MSHR_SIZE 64
offset bits 6
name cpu1_L1D
num_set 128
NUM_WAY 12
MSHR_SIZE 64
offset bits 6
name cpu1_L1D
num_set 128
NUM_WAY 12
MSHR_SIZE 64
offset bits 6
name cpu1_L1D
num_set 128
NUM_WAY 12
MSHR_SIZE 64
offset bits 6
name LLC
num_set 1024
NUM_WAY 4
MSHR_SIZE 64
offset bits 6
name cpu1_L1D
num_set 128
NUM_WAY 12
MSHR_SIZE 64
offset bits 6
name cpu1_L1D
num_set 128
NUM_WAY 12
MSHR_SIZE 64
offset bits 6
name cpu1_L1D
num_set 128
NUM_WAY 12
MSHR_SIZE 64
offset bits 6
name cpu1_L1D
num_set 128
NUM_WAY 12
MSHR_SIZE 64
offset bits 6
name cpu1_L1D
num_set 128
NUM_WAY 12
MSHR_SIZE 64
offset bits 6
name cpu1_L1D
num_set 128
NUM_WAY 12
MSHR_SIZE 64
offset bits 6
name cpu1_L1D
num_set 128
NUM_WAY 12
MSHR_SIZE 64
offset bits 6
name cpu1_L1D
num_set 128
NUM_WAY 12
MSHR_SIZE 64
offset bits 6
name LLC
num_set 1024
NUM_WAY 4
MSHR_SIZE 64
offset bits 6
name cpu1_L1D
num_set 128
NUM_WAY 12
MSHR_SIZE 64
offset bits 6
name LLC
num_set 1024
NUM_WAY 4
MSHR_SIZE 64
offset bits 6
name cpu1_L1D
num_set 128
NUM_WAY 12
MSHR_SIZE 64
offset bits 6
name cpu1_L1D
num_set 128
NUM_WAY 12
MSHR_SIZE 64
offset bits 6
name LLC
num_set 1024
NUM_WAY 4
MSHR_SIZE 64
offset bits 6
name cpu1_L1D
num_set 128
NUM_WAY 12
MSHR_SIZE 64
offset bits 6
name cpu1_L1D
num_set 128
NUM_WAY 12
MSHR_SIZE 64
offset bits 6
name cpu1_L1D
num_set 128
NUM_WAY 12
MSHR_SIZE 64
offset bits 6
name cpu1_L1D
num_set 128
NUM_WAY 12
MSHR_SIZE 64
offset bits 6
name cpu1_L1D
num_set 128
NUM_WAY 12
MSHR_SIZE 64
offset bits 6
name cpu1_L1D
num_set 128
NUM_WAY 12
MSHR_SIZE 64
offset bits 6
name cpu1_L1D
num_set 128
NUM_WAY 12
MSHR_SIZE 64
offset bits 6
name cpu1_L1D
num_set 128
NUM_WAY 12
MSHR_SIZE 64
offset bits 6
name cpu1_L1D
num_set 128
NUM_WAY 12
MSHR_SIZE 64
offset bits 6
name cpu1_L1D
num_set 128
NUM_WAY 12
MSHR_SIZE 64
offset bits 6
name cpu1_L1D
num_set 128
NUM_WAY 12
MSHR_SIZE 64
offset bits 6
name cpu1_L1D
num_set 128
NUM_WAY 12
MSHR_SIZE 64
offset bits 6
name cpu1_L1D
num_set 128
NUM_WAY 12
MSHR_SIZE 64
offset bits 6
name cpu1_L1D
num_set 128
NUM_WAY 12
MSHR_SIZE 64
offset bits 6
name cpu1_L1D
num_set 128
NUM_WAY 12
MSHR_SIZE 64
offset bits 6
name cpu1_L1D
num_set 128
NUM_WAY 12
MSHR_SIZE 64
offset bits 6
name cpu1_L1D
num_set 128
NUM_WAY 12
MSHR_SIZE 64
offset bits 6
name cpu1_L1D
num_set 128
NUM_WAY 12
MSHR_SIZE 64
offset bits 6
name cpu1_L1D
num_set 128
NUM_WAY 12
MSHR_SIZE 64
offset bits 6
name cpu1_L1D
num_set 128
NUM_WAY 12
MSHR_SIZE 64
offset bits 6
name LLC
num_set 1024
NUM_WAY 4
MSHR_SIZE 64
offset bits 6
name cpu1_L1D
num_set 128
NUM_WAY 12
MSHR_SIZE 64
offset bits 6
name cpu1_L1D
num_set 128
NUM_WAY 12
MSHR_SIZE 64
offset bits 6
name cpu1_L1D
num_set 128
NUM_WAY 12
MSHR_SIZE 64
offset bits 6
name cpu1_L1D
num_set 128
NUM_WAY 12
MSHR_SIZE 64
offset bits 6
name cpu1_L1D
num_set 128
NUM_WAY 12
MSHR_SIZE 64
offset bits 6
name cpu1_L1D
num_set 128
NUM_WAY 12
MSHR_SIZE 64
offset bits 6
name cpu1_L1D
num_set 128
NUM_WAY 12
MSHR_SIZE 64
offset bits 6
name cpu1_L1D
num_set 128
NUM_WAY 12
MSHR_SIZE 64
offset bits 6
name cpu1_L1D
num_set 128
NUM_WAY 12
MSHR_SIZE 64
offset bits 6
name cpu1_L1D
num_set 128
NUM_WAY 12
MSHR_SIZE 64
offset bits 6
name cpu1_L1D
num_set 128
NUM_WAY 12
MSHR_SIZE 64
offset bits 6
name cpu1_L1D
num_set 128
NUM_WAY 12
MSHR_SIZE 64
offset bits 6
name cpu1_L1D
num_set 128
NUM_WAY 12
MSHR_SIZE 64
offset bits 6
name cpu1_L1D
num_set 128
NUM_WAY 12
MSHR_SIZE 64
offset bits 6
name cpu1_L1D
num_set 128
NUM_WAY 12
MSHR_SIZE 64
offset bits 6
name cpu1_L1D
num_set 128
NUM_WAY 12
MSHR_SIZE 64
offset bits 6
name cpu1_L1D
num_set 128
NUM_WAY 12
MSHR_SIZE 64
offset bits 6
name cpu1_L1D
num_set 128
NUM_WAY 12
MSHR_SIZE 64
offset bits 6
name cpu1_L1D
num_set 128
NUM_WAY 12
MSHR_SIZE 64
offset bits 6
name cpu1_L1D
num_set 128
NUM_WAY 12
MSHR_SIZE 64
offset bits 6
name cpu1_L1D
num_set 128
NUM_WAY 12
MSHR_SIZE 64
offset bits 6
name cpu1_L1D
num_set 128
NUM_WAY 12
MSHR_SIZE 64
offset bits 6
name cpu1_L1D
num_set 128
NUM_WAY 12
MSHR_SIZE 64
offset bits 6
name cpu1_L1D
num_set 128
NUM_WAY 12
MSHR_SIZE 64
offset bits 6
name cpu1_L1D
num_set 128
NUM_WAY 12
MSHR_SIZE 64
offset bits 6
name cpu1_L1D
num_set 128
NUM_WAY 12
MSHR_SIZE 64
offset bits 6
name LLC
num_set 1024
NUM_WAY 4
MSHR_SIZE 64
offset bits 6
name cpu1_L1D
num_set 128
NUM_WAY 12
MSHR_SIZE 64
offset bits 6
name LLC
num_set 1024
NUM_WAY 4
MSHR_SIZE 64
offset bits 6
name cpu1_L1D
num_set 128
NUM_WAY 12
MSHR_SIZE 64
offset bits 6
name cpu1_L1D
num_set 128
NUM_WAY 12
MSHR_SIZE 64
offset bits 6
name LLC
num_set 1024
NUM_WAY 4
MSHR_SIZE 64
offset bits 6
name cpu1_L1D
num_set 128
NUM_WAY 12
MSHR_SIZE 64
offset bits 6
name cpu1_L1D
num_set 128
NUM_WAY 12
MSHR_SIZE 64
offset bits 6
name cpu1_L1D
num_set 128
NUM_WAY 12
MSHR_SIZE 64
offset bits 6
name LLC
num_set 1024
NUM_WAY 4
MSHR_SIZE 64
offset bits 6
name cpu1_L1D
num_set 128
NUM_WAY 12
MSHR_SIZE 64
offset bits 6
name cpu1_L1D
num_set 128
NUM_WAY 12
MSHR_SIZE 64
offset bits 6
name cpu1_L1D
num_set 128
NUM_WAY 12
MSHR_SIZE 64
offset bits 6
name LLC
num_set 1024
NUM_WAY 4
MSHR_SIZE 64
offset bits 6
name cpu1_L1D
num_set 128
NUM_WAY 12
MSHR_SIZE 64
offset bits 6
name cpu1_L1D
num_set 128
NUM_WAY 12
MSHR_SIZE 64
offset bits 6
name LLC
num_set 1024
NUM_WAY 4
MSHR_SIZE 64
offset bits 6
name cpu1_L1D
num_set 128
NUM_WAY 12
MSHR_SIZE 64
offset bits 6
name LLC
num_set 1024
NUM_WAY 4
MSHR_SIZE 64
offset bits 6
name cpu1_L1D
num_set 128
NUM_WAY 12
MSHR_SIZE 64
offset bits 6
name LLC
num_set 1024
NUM_WAY 4
MSHR_SIZE 64
offset bits 6
name LLC
num_set 1024
NUM_WAY 4
MSHR_SIZE 64
offset bits 6
name LLC
num_set 1024
NUM_WAY 4
MSHR_SIZE 64
offset bits 6
name LLC
num_set 1024
NUM_WAY 4
MSHR_SIZE 64
offset bits 6
name cpu1_L1D
num_set 128
NUM_WAY 12
MSHR_SIZE 64
offset bits 6
name LLC
num_set 1024
NUM_WAY 4
MSHR_SIZE 64
offset bits 6
name cpu1_L1D
num_set 128
NUM_WAY 12
MSHR_SIZE 64
offset bits 6
name cpu1_L1D
num_set 128
NUM_WAY 12
MSHR_SIZE 64
offset bits 6
name cpu1_L1D
num_set 128
NUM_WAY 12
MSHR_SIZE 64
offset bits 6
name LLC
num_set 1024
NUM_WAY 4
MSHR_SIZE 64
offset bits 6
name cpu1_L1D
num_set 128
NUM_WAY 12
MSHR_SIZE 64
offset bits 6
name LLC
num_set 1024
NUM_WAY 4
MSHR_SIZE 64
offset bits 6
name cpu1_L1D
num_set 128
NUM_WAY 12
MSHR_SIZE 64
offset bits 6
name LLC
num_set 1024
NUM_WAY 4
MSHR_SIZE 64
offset bits 6
name cpu1_L1D
num_set 128
NUM_WAY 12
MSHR_SIZE 64
offset bits 6
name LLC
num_set 1024
NUM_WAY 4
MSHR_SIZE 64
offset bits 6
name cpu1_L1D
num_set 128
NUM_WAY 12
MSHR_SIZE 64
offset bits 6
name cpu1_L1D
num_set 128
NUM_WAY 12
MSHR_SIZE 64
offset bits 6
name cpu1_L1D
num_set 128
NUM_WAY 12
MSHR_SIZE 64
offset bits 6
name cpu1_L1D
num_set 128
NUM_WAY 12
MSHR_SIZE 64
offset bits 6
name LLC
num_set 1024
NUM_WAY 4
MSHR_SIZE 64
offset bits 6
name LLC
num_set 1024
NUM_WAY 4
MSHR_SIZE 64
offset bits 6
name cpu1_L1D
num_set 128
NUM_WAY 12
MSHR_SIZE 64
offset bits 6
name LLC
num_set 1024
NUM_WAY 4
MSHR_SIZE 64
offset bits 6
name LLC
num_set 1024
NUM_WAY 4
MSHR_SIZE 64
offset bits 6
name cpu1_L1D
num_set 128
NUM_WAY 12
MSHR_SIZE 64
offset bits 6
name LLC
num_set 1024
NUM_WAY 4
MSHR_SIZE 64
offset bits 6
name LLC
num_set 1024
NUM_WAY 4
MSHR_SIZE 64
offset bits 6
name cpu1_L1D
num_set 128
NUM_WAY 12
MSHR_SIZE 64
offset bits 6
name LLC
num_set 1024
NUM_WAY 4
MSHR_SIZE 64
offset bits 6
name LLC
num_set 1024
NUM_WAY 4
MSHR_SIZE 64
offset bits 6
name LLC
num_set 1024
NUM_WAY 4
MSHR_SIZE 64
offset bits 6
name cpu1_L1D
num_set 128
NUM_WAY 12
MSHR_SIZE 64
offset bits 6
name cpu1_L1D
num_set 128
NUM_WAY 12
MSHR_SIZE 64
offset bits 6
name cpu1_L1D
num_set 128
NUM_WAY 12
MSHR_SIZE 64
offset bits 6
name cpu1_L1D
num_set 128
NUM_WAY 12
MSHR_SIZE 64
offset bits 6
name cpu1_L1D
num_set 128
NUM_WAY 12
MSHR_SIZE 64
offset bits 6
name LLC
num_set 1024
NUM_WAY 4
MSHR_SIZE 64
offset bits 6
name cpu1_L1D
num_set 128
NUM_WAY 12
MSHR_SIZE 64
offset bits 6
name cpu1_L1D
num_set 128
NUM_WAY 12
MSHR_SIZE 64
offset bits 6
name cpu1_L1D
num_set 128
NUM_WAY 12
MSHR_SIZE 64
offset bits 6
name LLC
num_set 1024
NUM_WAY 4
MSHR_SIZE 64
offset bits 6
name cpu1_L1D
num_set 128
NUM_WAY 12
MSHR_SIZE 64
offset bits 6
name cpu1_L1D
num_set 128
NUM_WAY 12
MSHR_SIZE 64
offset bits 6
name cpu1_L1D
num_set 128
NUM_WAY 12
MSHR_SIZE 64
offset bits 6
name LLC
num_set 1024
NUM_WAY 4
MSHR_SIZE 64
offset bits 6
name LLC
num_set 1024
NUM_WAY 4
MSHR_SIZE 64
offset bits 6
name LLC
num_set 1024
NUM_WAY 4
MSHR_SIZE 64
offset bits 6
name cpu1_L1D
num_set 128
NUM_WAY 12
MSHR_SIZE 64
offset bits 6
name cpu1_L1D
num_set 128
NUM_WAY 12
MSHR_SIZE 64
offset bits 6
name LLC
num_set 1024
NUM_WAY 4
MSHR_SIZE 64
offset bits 6
name LLC
num_set 1024
NUM_WAY 4
MSHR_SIZE 64
offset bits 6
name cpu1_L1D
num_set 128
NUM_WAY 12
MSHR_SIZE 64
offset bits 6
name cpu1_L1D
num_set 128
NUM_WAY 12
MSHR_SIZE 64
offset bits 6
name LLC
num_set 1024
NUM_WAY 4
MSHR_SIZE 64
offset bits 6
name cpu1_L1D
num_set 128
NUM_WAY 12
MSHR_SIZE 64
offset bits 6
name LLC
num_set 1024
NUM_WAY 4
MSHR_SIZE 64
offset bits 6
name cpu1_L1D
num_set 128
NUM_WAY 12
MSHR_SIZE 64
offset bits 6
name cpu1_L1D
num_set 128
NUM_WAY 12
MSHR_SIZE 64
offset bits 6
name cpu1_L1D
num_set 128
NUM_WAY 12
MSHR_SIZE 64
offset bits 6
name cpu1_L1D
num_set 128
NUM_WAY 12
MSHR_SIZE 64
offset bits 6
name LLC
num_set 1024
NUM_WAY 4
MSHR_SIZE 64
offset bits 6
name cpu1_L1D
num_set 128
NUM_WAY 12
MSHR_SIZE 64
offset bits 6
name cpu1_L1D
num_set 128
NUM_WAY 12
MSHR_SIZE 64
offset bits 6
name cpu1_L1D
num_set 128
NUM_WAY 12
MSHR_SIZE 64
offset bits 6
name cpu1_L1D
num_set 128
NUM_WAY 12
MSHR_SIZE 64
offset bits 6
name LLC
num_set 1024
NUM_WAY 4
MSHR_SIZE 64
offset bits 6
name cpu1_L1D
num_set 128
NUM_WAY 12
MSHR_SIZE 64
offset bits 6
name cpu1_L1D
num_set 128
NUM_WAY 12
MSHR_SIZE 64
offset bits 6
name cpu1_L1D
num_set 128
NUM_WAY 12
MSHR_SIZE 64
offset bits 6
name cpu1_L1D
num_set 128
NUM_WAY 12
MSHR_SIZE 64
offset bits 6
name cpu1_L1D
num_set 128
NUM_WAY 12
MSHR_SIZE 64
offset bits 6
name cpu1_L1D
num_set 128
NUM_WAY 12
MSHR_SIZE 64
offset bits 6
name cpu1_DTLB
num_set 16
NUM_WAY 4
MSHR_SIZE 8
offset bits 12
name LLC
num_set 1024
NUM_WAY 4
MSHR_SIZE 64
offset bits 6
name LLC
num_set 1024
NUM_WAY 4
MSHR_SIZE 64
offset bits 6
name cpu1_L1D
num_set 128
NUM_WAY 12
MSHR_SIZE 64
offset bits 6
name cpu1_L1D
num_set 128
NUM_WAY 12
MSHR_SIZE 64
offset bits 6
name cpu1_L1D
num_set 128
NUM_WAY 12
MSHR_SIZE 64
offset bits 6
name cpu1_L1D
num_set 128
NUM_WAY 12
MSHR_SIZE 64
offset bits 6
name cpu1_L1D
num_set 128
NUM_WAY 12
MSHR_SIZE 64
offset bits 6
name LLC
num_set 1024
NUM_WAY 4
MSHR_SIZE 64
offset bits 6
name cpu1_DTLB
num_set 16
NUM_WAY 4
MSHR_SIZE 8
offset bits 12
name LLC
num_set 1024
NUM_WAY 4
MSHR_SIZE 64
offset bits 6
name cpu1_L1D
num_set 128
NUM_WAY 12
MSHR_SIZE 64
offset bits 6
name cpu1_L1D
num_set 128
NUM_WAY 12
MSHR_SIZE 64
offset bits 6
name cpu1_L1D
num_set 128
NUM_WAY 12
MSHR_SIZE 64
offset bits 6
name cpu1_L1D
num_set 128
NUM_WAY 12
MSHR_SIZE 64
offset bits 6
name cpu1_L1D
num_set 128
NUM_WAY 12
MSHR_SIZE 64
offset bits 6
name cpu1_L1D
num_set 128
NUM_WAY 12
MSHR_SIZE 64
offset bits 6
name LLC
num_set 1024
NUM_WAY 4
MSHR_SIZE 64
offset bits 6
name cpu1_L1D
num_set 128
NUM_WAY 12
MSHR_SIZE 64
offset bits 6
name cpu1_L1D
num_set 128
NUM_WAY 12
MSHR_SIZE 64
offset bits 6
name cpu1_L1D
num_set 128
NUM_WAY 12
MSHR_SIZE 64
offset bits 6
name cpu1_L1D
num_set 128
NUM_WAY 12
MSHR_SIZE 64
offset bits 6
name cpu1_L1D
num_set 128
NUM_WAY 12
MSHR_SIZE 64
offset bits 6
name LLC
num_set 1024
NUM_WAY 4
MSHR_SIZE 64
offset bits 6
name cpu1_L1D
num_set 128
NUM_WAY 12
MSHR_SIZE 64
offset bits 6
name LLC
num_set 1024
NUM_WAY 4
MSHR_SIZE 64
offset bits 6
name cpu1_L1D
num_set 128
NUM_WAY 12
MSHR_SIZE 64
offset bits 6
name LLC
num_set 1024
NUM_WAY 4
MSHR_SIZE 64
offset bits 6
name cpu1_L1D
num_set 128
NUM_WAY 12
MSHR_SIZE 64
offset bits 6
name cpu1_L1D
num_set 128
NUM_WAY 12
MSHR_SIZE 64
offset bits 6
name LLC
num_set 1024
NUM_WAY 4
MSHR_SIZE 64
offset bits 6
name LLC
num_set 1024
NUM_WAY 4
MSHR_SIZE 64
offset bits 6
name cpu1_L1D
num_set 128
NUM_WAY 12
MSHR_SIZE 64
offset bits 6
name cpu1_L1D
num_set 128
NUM_WAY 12
MSHR_SIZE 64
offset bits 6
name cpu1_L1D
num_set 128
NUM_WAY 12
MSHR_SIZE 64
offset bits 6
name cpu1_L1D
num_set 128
NUM_WAY 12
MSHR_SIZE 64
offset bits 6
name cpu1_L1D
num_set 128
NUM_WAY 12
MSHR_SIZE 64
offset bits 6
name cpu1_L1D
num_set 128
NUM_WAY 12
MSHR_SIZE 64
offset bits 6
name cpu1_L1D
num_set 128
NUM_WAY 12
MSHR_SIZE 64
offset bits 6
name cpu1_L1D
num_set 128
NUM_WAY 12
MSHR_SIZE 64
offset bits 6
name cpu1_L1D
num_set 128
NUM_WAY 12
MSHR_SIZE 64
offset bits 6
name LLC
num_set 1024
NUM_WAY 4
MSHR_SIZE 64
offset bits 6
name LLC
num_set 1024
NUM_WAY 4
MSHR_SIZE 64
offset bits 6
name cpu1_L1D
num_set 128
NUM_WAY 12
MSHR_SIZE 64
offset bits 6
name cpu1_L1D
num_set 128
NUM_WAY 12
MSHR_SIZE 64
offset bits 6
name cpu1_L1D
num_set 128
NUM_WAY 12
MSHR_SIZE 64
offset bits 6
name cpu1_L1D
num_set 128
NUM_WAY 12
MSHR_SIZE 64
offset bits 6
name cpu1_L1D
num_set 128
NUM_WAY 12
MSHR_SIZE 64
offset bits 6
name cpu1_L1D
num_set 128
NUM_WAY 12
MSHR_SIZE 64
offset bits 6
name cpu1_L1D
num_set 128
NUM_WAY 12
MSHR_SIZE 64
offset bits 6
name cpu1_L1D
num_set 128
NUM_WAY 12
MSHR_SIZE 64
offset bits 6
name cpu1_L1D
num_set 128
NUM_WAY 12
MSHR_SIZE 64
offset bits 6
name cpu1_L1D
num_set 128
NUM_WAY 12
MSHR_SIZE 64
offset bits 6
name cpu1_L1D
num_set 128
NUM_WAY 12
MSHR_SIZE 64
offset bits 6
name cpu1_L1D
num_set 128
NUM_WAY 12
MSHR_SIZE 64
offset bits 6
name cpu1_L1D
num_set 128
NUM_WAY 12
MSHR_SIZE 64
offset bits 6
name cpu1_L1D
num_set 128
NUM_WAY 12
MSHR_SIZE 64
offset bits 6
name cpu1_L1D
num_set 128
NUM_WAY 12
MSHR_SIZE 64
offset bits 6
name cpu1_L1D
num_set 128
NUM_WAY 12
MSHR_SIZE 64
offset bits 6
name LLC
num_set 1024
NUM_WAY 4
MSHR_SIZE 64
offset bits 6
name cpu1_L1D
num_set 128
NUM_WAY 12
MSHR_SIZE 64
offset bits 6
name cpu1_L1D
num_set 128
NUM_WAY 12
MSHR_SIZE 64
offset bits 6
name cpu1_L1D
num_set 128
NUM_WAY 12
MSHR_SIZE 64
offset bits 6
name LLC
num_set 1024
NUM_WAY 4
MSHR_SIZE 64
offset bits 6
name cpu1_L1D
num_set 128
NUM_WAY 12
MSHR_SIZE 64
offset bits 6
name cpu1_L1D
num_set 128
NUM_WAY 12
MSHR_SIZE 64
offset bits 6
name cpu1_L1D
num_set 128
NUM_WAY 12
MSHR_SIZE 64
offset bits 6
name cpu1_L1D
num_set 128
NUM_WAY 12
MSHR_SIZE 64
offset bits 6
name cpu1_L1D
num_set 128
NUM_WAY 12
MSHR_SIZE 64
offset bits 6
name LLC
num_set 1024
NUM_WAY 4
MSHR_SIZE 64
offset bits 6
name cpu1_L1D
num_set 128
NUM_WAY 12
MSHR_SIZE 64
offset bits 6
name LLC
num_set 1024
NUM_WAY 4
MSHR_SIZE 64
offset bits 6
name cpu1_L1D
num_set 128
NUM_WAY 12
MSHR_SIZE 64
offset bits 6
name LLC
num_set 1024
NUM_WAY 4
MSHR_SIZE 64
offset bits 6
name cpu1_L1D
num_set 128
NUM_WAY 12
MSHR_SIZE 64
offset bits 6
name LLC
num_set 1024
NUM_WAY 4
MSHR_SIZE 64
offset bits 6
name cpu1_L1D
num_set 128
NUM_WAY 12
MSHR_SIZE 64
offset bits 6
name cpu1_L1D
num_set 128
NUM_WAY 12
MSHR_SIZE 64
offset bits 6
name cpu1_L1D
num_set 128
NUM_WAY 12
MSHR_SIZE 64
offset bits 6
name cpu1_L1D
num_set 128
NUM_WAY 12
MSHR_SIZE 64
offset bits 6
name LLC
num_set 1024
NUM_WAY 4
MSHR_SIZE 64
offset bits 6
name cpu1_L1D
num_set 128
NUM_WAY 12
MSHR_SIZE 64
offset bits 6
name LLC
num_set 1024
NUM_WAY 4
MSHR_SIZE 64
offset bits 6
name cpu1_L1D
num_set 128
NUM_WAY 12
MSHR_SIZE 64
offset bits 6
name cpu1_L1D
num_set 128
NUM_WAY 12
MSHR_SIZE 64
offset bits 6
name cpu1_L1D
num_set 128
NUM_WAY 12
MSHR_SIZE 64
offset bits 6
name cpu1_L1D
num_set 128
NUM_WAY 12
MSHR_SIZE 64
offset bits 6
name LLC
num_set 1024
NUM_WAY 4
MSHR_SIZE 64
offset bits 6
name cpu1_L1D
num_set 128
NUM_WAY 12
MSHR_SIZE 64
offset bits 6
name LLC
num_set 1024
NUM_WAY 4
MSHR_SIZE 64
offset bits 6
name cpu1_L1D
num_set 128
NUM_WAY 12
MSHR_SIZE 64
offset bits 6
name cpu1_L1D
num_set 128
NUM_WAY 12
MSHR_SIZE 64
offset bits 6
name cpu1_L1D
num_set 128
NUM_WAY 12
MSHR_SIZE 64
offset bits 6
name LLC
num_set 1024
NUM_WAY 4
MSHR_SIZE 64
offset bits 6
name cpu1_L1D
num_set 128
NUM_WAY 12
MSHR_SIZE 64
offset bits 6
name cpu1_L1D
num_set 128
NUM_WAY 12
MSHR_SIZE 64
offset bits 6
name cpu1_L1D
num_set 128
NUM_WAY 12
MSHR_SIZE 64
offset bits 6
name LLC
num_set 1024
NUM_WAY 4
MSHR_SIZE 64
offset bits 6
name cpu1_L1D
num_set 128
NUM_WAY 12
MSHR_SIZE 64
offset bits 6
name cpu1_L1D
num_set 128
NUM_WAY 12
MSHR_SIZE 64
offset bits 6
name cpu1_L1D
num_set 128
NUM_WAY 12
MSHR_SIZE 64
offset bits 6
name cpu1_L1D
num_set 128
NUM_WAY 12
MSHR_SIZE 64
offset bits 6
name cpu1_L1D
num_set 128
NUM_WAY 12
MSHR_SIZE 64
offset bits 6
name LLC
num_set 1024
NUM_WAY 4
MSHR_SIZE 64
offset bits 6
name cpu1_L1D
num_set 128
NUM_WAY 12
MSHR_SIZE 64
offset bits 6
name cpu1_L1D
num_set 128
NUM_WAY 12
MSHR_SIZE 64
offset bits 6
name cpu1_L1D
num_set 128
NUM_WAY 12
MSHR_SIZE 64
offset bits 6
name cpu1_L1D
num_set 128
NUM_WAY 12
MSHR_SIZE 64
offset bits 6
name cpu1_L1D
num_set 128
NUM_WAY 12
MSHR_SIZE 64
offset bits 6
name cpu1_L1D
num_set 128
NUM_WAY 12
MSHR_SIZE 64
offset bits 6
name cpu1_L1D
num_set 128
NUM_WAY 12
MSHR_SIZE 64
offset bits 6
name cpu1_L1D
num_set 128
NUM_WAY 12
MSHR_SIZE 64
offset bits 6
name cpu1_L1D
num_set 128
NUM_WAY 12
MSHR_SIZE 64
offset bits 6
name cpu1_L1D
num_set 128
NUM_WAY 12
MSHR_SIZE 64
offset bits 6
name cpu1_L1D
num_set 128
NUM_WAY 12
MSHR_SIZE 64
offset bits 6
name cpu1_L1D
num_set 128
NUM_WAY 12
MSHR_SIZE 64
offset bits 6
name cpu1_L1D
num_set 128
NUM_WAY 12
MSHR_SIZE 64
offset bits 6
name cpu1_L1D
num_set 128
NUM_WAY 12
MSHR_SIZE 64
offset bits 6
name cpu1_L1D
num_set 128
NUM_WAY 12
MSHR_SIZE 64
offset bits 6
name cpu1_L1D
num_set 128
NUM_WAY 12
MSHR_SIZE 64
offset bits 6
name cpu1_L1D
num_set 128
NUM_WAY 12
MSHR_SIZE 64
offset bits 6
name LLC
num_set 1024
NUM_WAY 4
MSHR_SIZE 64
offset bits 6
name LLC
num_set 1024
NUM_WAY 4
MSHR_SIZE 64
offset bits 6
name cpu1_L1D
num_set 128
NUM_WAY 12
MSHR_SIZE 64
offset bits 6
name LLC
num_set 1024
NUM_WAY 4
MSHR_SIZE 64
offset bits 6
name LLC
num_set 1024
NUM_WAY 4
MSHR_SIZE 64
offset bits 6
name cpu1_L1D
num_set 128
NUM_WAY 12
MSHR_SIZE 64
offset bits 6
name cpu1_L1D
num_set 128
NUM_WAY 12
MSHR_SIZE 64
offset bits 6
name cpu1_L1D
num_set 128
NUM_WAY 12
MSHR_SIZE 64
offset bits 6
name cpu1_L1D
num_set 128
NUM_WAY 12
MSHR_SIZE 64
offset bits 6
name LLC
num_set 1024
NUM_WAY 4
MSHR_SIZE 64
offset bits 6
name cpu1_L1D
num_set 128
NUM_WAY 12
MSHR_SIZE 64
offset bits 6
name cpu1_L1D
num_set 128
NUM_WAY 12
MSHR_SIZE 64
offset bits 6
name LLC
num_set 1024
NUM_WAY 4
MSHR_SIZE 64
offset bits 6
name cpu1_L1D
num_set 128
NUM_WAY 12
MSHR_SIZE 64
offset bits 6
name cpu1_L1D
num_set 128
NUM_WAY 12
MSHR_SIZE 64
offset bits 6
name LLC
num_set 1024
NUM_WAY 4
MSHR_SIZE 64
offset bits 6
name cpu1_L1D
num_set 128
NUM_WAY 12
MSHR_SIZE 64
offset bits 6
name cpu1_L1D
num_set 128
NUM_WAY 12
MSHR_SIZE 64
offset bits 6
name cpu1_L1D
num_set 128
NUM_WAY 12
MSHR_SIZE 64
offset bits 6
name cpu1_L1D
num_set 128
NUM_WAY 12
MSHR_SIZE 64
offset bits 6
name LLC
num_set 1024
NUM_WAY 4
MSHR_SIZE 64
offset bits 6
name cpu1_L1D
num_set 128
NUM_WAY 12
MSHR_SIZE 64
offset bits 6
name cpu1_L1D
num_set 128
NUM_WAY 12
MSHR_SIZE 64
offset bits 6
name cpu1_L1D
num_set 128
NUM_WAY 12
MSHR_SIZE 64
offset bits 6
name cpu1_L1D
num_set 128
NUM_WAY 12
MSHR_SIZE 64
offset bits 6
name LLC
num_set 1024
NUM_WAY 4
MSHR_SIZE 64
offset bits 6
name cpu1_L1D
num_set 128
NUM_WAY 12
MSHR_SIZE 64
offset bits 6
name cpu1_L1D
num_set 128
NUM_WAY 12
MSHR_SIZE 64
offset bits 6
name cpu1_L1D
num_set 128
NUM_WAY 12
MSHR_SIZE 64
offset bits 6
name cpu1_L1D
num_set 128
NUM_WAY 12
MSHR_SIZE 64
offset bits 6
name cpu1_L1D
num_set 128
NUM_WAY 12
MSHR_SIZE 64
offset bits 6
name cpu1_L1D
num_set 128
NUM_WAY 12
MSHR_SIZE 64
offset bits 6
name cpu1_L1D
num_set 128
NUM_WAY 12
MSHR_SIZE 64
offset bits 6
name cpu1_L1D
num_set 128
NUM_WAY 12
MSHR_SIZE 64
offset bits 6
name cpu1_L1D
num_set 128
NUM_WAY 12
MSHR_SIZE 64
offset bits 6
name cpu1_L1D
num_set 128
NUM_WAY 12
MSHR_SIZE 64
offset bits 6
name cpu1_L1D
num_set 128
NUM_WAY 12
MSHR_SIZE 64
offset bits 6
name cpu1_L1D
num_set 128
NUM_WAY 12
MSHR_SIZE 64
offset bits 6
name cpu1_L1D
num_set 128
NUM_WAY 12
MSHR_SIZE 64
offset bits 6
name cpu1_L1D
num_set 128
NUM_WAY 12
MSHR_SIZE 64
offset bits 6
name cpu1_L1D
num_set 128
NUM_WAY 12
MSHR_SIZE 64
offset bits 6
name cpu1_L1D
num_set 128
NUM_WAY 12
MSHR_SIZE 64
offset bits 6
name cpu1_L1D
num_set 128
NUM_WAY 12
MSHR_SIZE 64
offset bits 6
name LLC
num_set 1024
NUM_WAY 4
MSHR_SIZE 64
offset bits 6
name cpu1_L1D
num_set 128
NUM_WAY 12
MSHR_SIZE 64
offset bits 6
name cpu1_L1D
num_set 128
NUM_WAY 12
MSHR_SIZE 64
offset bits 6
name cpu1_L1D
num_set 128
NUM_WAY 12
MSHR_SIZE 64
offset bits 6
name LLC
num_set 1024
NUM_WAY 4
MSHR_SIZE 64
offset bits 6
name cpu1_L1D
num_set 128
NUM_WAY 12
MSHR_SIZE 64
offset bits 6
name LLC
num_set 1024
NUM_WAY 4
MSHR_SIZE 64
offset bits 6
name LLC
num_set 1024
NUM_WAY 4
MSHR_SIZE 64
offset bits 6
name cpu1_L1D
num_set 128
NUM_WAY 12
MSHR_SIZE 64
offset bits 6
name cpu1_L1D
num_set 128
NUM_WAY 12
MSHR_SIZE 64
offset bits 6
name cpu1_L1D
num_set 128
NUM_WAY 12
MSHR_SIZE 64
offset bits 6
name cpu1_L1D
num_set 128
NUM_WAY 12
MSHR_SIZE 64
offset bits 6
name LLC
num_set 1024
NUM_WAY 4
MSHR_SIZE 64
offset bits 6
name cpu1_L1D
num_set 128
NUM_WAY 12
MSHR_SIZE 64
offset bits 6
name cpu1_L1D
num_set 128
NUM_WAY 12
MSHR_SIZE 64
offset bits 6
name cpu1_L1D
num_set 128
NUM_WAY 12
MSHR_SIZE 64
offset bits 6
name LLC
num_set 1024
NUM_WAY 4
MSHR_SIZE 64
offset bits 6
name cpu1_L1D
num_set 128
NUM_WAY 12
MSHR_SIZE 64
offset bits 6
name LLC
num_set 1024
NUM_WAY 4
MSHR_SIZE 64
offset bits 6
name cpu1_L1D
num_set 128
NUM_WAY 12
MSHR_SIZE 64
offset bits 6
name cpu1_L1D
num_set 128
NUM_WAY 12
MSHR_SIZE 64
offset bits 6
name cpu1_L1D
num_set 128
NUM_WAY 12
MSHR_SIZE 64
offset bits 6
name cpu1_L1D
num_set 128
NUM_WAY 12
MSHR_SIZE 64
offset bits 6
name cpu1_L1D
num_set 128
NUM_WAY 12
MSHR_SIZE 64
offset bits 6
name LLC
num_set 1024
NUM_WAY 4
MSHR_SIZE 64
offset bits 6
name LLC
num_set 1024
NUM_WAY 4
MSHR_SIZE 64
offset bits 6
name cpu1_L1D
num_set 128
NUM_WAY 12
MSHR_SIZE 64
offset bits 6
name cpu1_L1D
num_set 128
NUM_WAY 12
MSHR_SIZE 64
offset bits 6
name cpu1_L1D
num_set 128
NUM_WAY 12
MSHR_SIZE 64
offset bits 6
name cpu1_L1D
num_set 128
NUM_WAY 12
MSHR_SIZE 64
offset bits 6
name cpu1_L1D
num_set 128
NUM_WAY 12
MSHR_SIZE 64
offset bits 6
name cpu1_L1D
num_set 128
NUM_WAY 12
MSHR_SIZE 64
offset bits 6
name cpu1_L1D
num_set 128
NUM_WAY 12
MSHR_SIZE 64
offset bits 6
name cpu1_L1D
num_set 128
NUM_WAY 12
MSHR_SIZE 64
offset bits 6
name cpu1_L1D
num_set 128
NUM_WAY 12
MSHR_SIZE 64
offset bits 6
name cpu1_L1D
num_set 128
NUM_WAY 12
MSHR_SIZE 64
offset bits 6
name LLC
num_set 1024
NUM_WAY 4
MSHR_SIZE 64
offset bits 6
name cpu1_L1D
num_set 128
NUM_WAY 12
MSHR_SIZE 64
offset bits 6
name cpu1_L1D
num_set 128
NUM_WAY 12
MSHR_SIZE 64
offset bits 6
name LLC
num_set 1024
NUM_WAY 4
MSHR_SIZE 64
offset bits 6
name cpu1_L1D
num_set 128
NUM_WAY 12
MSHR_SIZE 64
offset bits 6
name cpu1_L1D
num_set 128
NUM_WAY 12
MSHR_SIZE 64
offset bits 6
name cpu1_L1D
num_set 128
NUM_WAY 12
MSHR_SIZE 64
offset bits 6
name cpu1_L1D
num_set 128
NUM_WAY 12
MSHR_SIZE 64
offset bits 6
name cpu1_L1D
num_set 128
NUM_WAY 12
MSHR_SIZE 64
offset bits 6
name cpu1_L1D
num_set 128
NUM_WAY 12
MSHR_SIZE 64
offset bits 6
name cpu1_L1D
num_set 128
NUM_WAY 12
MSHR_SIZE 64
offset bits 6
name cpu1_L1D
num_set 128
NUM_WAY 12
MSHR_SIZE 64
offset bits 6
name cpu1_L1D
num_set 128
NUM_WAY 12
MSHR_SIZE 64
offset bits 6
name cpu1_L1D
num_set 128
NUM_WAY 12
MSHR_SIZE 64
offset bits 6
name cpu1_L1D
num_set 128
NUM_WAY 12
MSHR_SIZE 64
offset bits 6
name cpu1_L1D
num_set 128
NUM_WAY 12
MSHR_SIZE 64
offset bits 6
name cpu1_L1D
num_set 128
NUM_WAY 12
MSHR_SIZE 64
offset bits 6
name LLC
num_set 1024
NUM_WAY 4
MSHR_SIZE 64
offset bits 6
name LLC
num_set 1024
NUM_WAY 4
MSHR_SIZE 64
offset bits 6
name cpu1_L1D
num_set 128
NUM_WAY 12
MSHR_SIZE 64
offset bits 6
name cpu1_L1D
num_set 128
NUM_WAY 12
MSHR_SIZE 64
offset bits 6
name LLC
num_set 1024
NUM_WAY 4
MSHR_SIZE 64
offset bits 6
name cpu1_L1D
num_set 128
NUM_WAY 12
MSHR_SIZE 64
offset bits 6
name cpu1_L1D
num_set 128
NUM_WAY 12
MSHR_SIZE 64
offset bits 6
name cpu1_L1D
num_set 128
NUM_WAY 12
MSHR_SIZE 64
offset bits 6
name cpu1_L1D
num_set 128
NUM_WAY 12
MSHR_SIZE 64
offset bits 6
name cpu1_L1D
num_set 128
NUM_WAY 12
MSHR_SIZE 64
offset bits 6
name LLC
num_set 1024
NUM_WAY 4
MSHR_SIZE 64
offset bits 6
name cpu1_L1D
num_set 128
NUM_WAY 12
MSHR_SIZE 64
offset bits 6
name cpu1_L1D
num_set 128
NUM_WAY 12
MSHR_SIZE 64
offset bits 6
name LLC
num_set 1024
NUM_WAY 4
MSHR_SIZE 64
offset bits 6
name cpu1_L1D
num_set 128
NUM_WAY 12
MSHR_SIZE 64
offset bits 6
name cpu1_L1D
num_set 128
NUM_WAY 12
MSHR_SIZE 64
offset bits 6
name cpu1_L1D
num_set 128
NUM_WAY 12
MSHR_SIZE 64
offset bits 6
name cpu1_L1D
num_set 128
NUM_WAY 12
MSHR_SIZE 64
offset bits 6
name cpu1_L1D
num_set 128
NUM_WAY 12
MSHR_SIZE 64
offset bits 6
name cpu1_L1D
num_set 128
NUM_WAY 12
MSHR_SIZE 64
offset bits 6
name LLC
num_set 1024
NUM_WAY 4
MSHR_SIZE 64
offset bits 6
name cpu1_L1D
num_set 128
NUM_WAY 12
MSHR_SIZE 64
offset bits 6
name cpu1_L1D
num_set 128
NUM_WAY 12
MSHR_SIZE 64
offset bits 6
name cpu1_L1D
num_set 128
NUM_WAY 12
MSHR_SIZE 64
offset bits 6
name cpu1_L1D
num_set 128
NUM_WAY 12
MSHR_SIZE 64
offset bits 6
name cpu1_L1D
num_set 128
NUM_WAY 12
MSHR_SIZE 64
offset bits 6
name cpu1_L1D
num_set 128
NUM_WAY 12
MSHR_SIZE 64
offset bits 6
name cpu1_L1D
num_set 128
NUM_WAY 12
MSHR_SIZE 64
offset bits 6
name cpu1_L1D
num_set 128
NUM_WAY 12
MSHR_SIZE 64
offset bits 6
name cpu1_L1D
num_set 128
NUM_WAY 12
MSHR_SIZE 64
offset bits 6
name cpu1_L1D
num_set 128
NUM_WAY 12
MSHR_SIZE 64
offset bits 6
name cpu1_L1D
num_set 128
NUM_WAY 12
MSHR_SIZE 64
offset bits 6
name cpu1_L1D
num_set 128
NUM_WAY 12
MSHR_SIZE 64
offset bits 6
name cpu1_L1D
num_set 128
NUM_WAY 12
MSHR_SIZE 64
offset bits 6
name LLC
num_set 1024
NUM_WAY 4
MSHR_SIZE 64
offset bits 6
name cpu1_L1D
num_set 128
NUM_WAY 12
MSHR_SIZE 64
offset bits 6
name LLC
num_set 1024
NUM_WAY 4
MSHR_SIZE 64
offset bits 6
name cpu1_L1D
num_set 128
NUM_WAY 12
MSHR_SIZE 64
offset bits 6
name cpu1_L1D
num_set 128
NUM_WAY 12
MSHR_SIZE 64
offset bits 6
name cpu1_L1D
num_set 128
NUM_WAY 12
MSHR_SIZE 64
offset bits 6
name cpu1_L1D
num_set 128
NUM_WAY 12
MSHR_SIZE 64
offset bits 6
name cpu1_L1D
num_set 128
NUM_WAY 12
MSHR_SIZE 64
offset bits 6
name cpu1_L1D
num_set 128
NUM_WAY 12
MSHR_SIZE 64
offset bits 6
name cpu1_L1D
num_set 128
NUM_WAY 12
MSHR_SIZE 64
offset bits 6
name cpu1_L1D
num_set 128
NUM_WAY 12
MSHR_SIZE 64
offset bits 6
name cpu1_L1D
num_set 128
NUM_WAY 12
MSHR_SIZE 64
offset bits 6
name cpu1_L1D
num_set 128
NUM_WAY 12
MSHR_SIZE 64
offset bits 6
name cpu1_L1D
num_set 128
NUM_WAY 12
MSHR_SIZE 64
offset bits 6
name cpu1_L1D
num_set 128
NUM_WAY 12
MSHR_SIZE 64
offset bits 6
name cpu1_L1D
num_set 128
NUM_WAY 12
MSHR_SIZE 64
offset bits 6
name cpu1_L1D
num_set 128
NUM_WAY 12
MSHR_SIZE 64
offset bits 6
name cpu1_L1D
num_set 128
NUM_WAY 12
MSHR_SIZE 64
offset bits 6
name cpu1_L1D
num_set 128
NUM_WAY 12
MSHR_SIZE 64
offset bits 6
name cpu1_L1D
num_set 128
NUM_WAY 12
MSHR_SIZE 64
offset bits 6
name cpu1_L1D
num_set 128
NUM_WAY 12
MSHR_SIZE 64
offset bits 6
name cpu1_L1D
num_set 128
NUM_WAY 12
MSHR_SIZE 64
offset bits 6
name cpu1_L1D
num_set 128
NUM_WAY 12
MSHR_SIZE 64
offset bits 6
name LLC
num_set 1024
NUM_WAY 4
MSHR_SIZE 64
offset bits 6
name cpu1_L1D
num_set 128
NUM_WAY 12
MSHR_SIZE 64
offset bits 6
name cpu1_L1D
num_set 128
NUM_WAY 12
MSHR_SIZE 64
offset bits 6
name LLC
num_set 1024
NUM_WAY 4
MSHR_SIZE 64
offset bits 6
name cpu1_L1D
num_set 128
NUM_WAY 12
MSHR_SIZE 64
offset bits 6
name cpu1_L1D
num_set 128
NUM_WAY 12
MSHR_SIZE 64
offset bits 6
name cpu1_L1D
num_set 128
NUM_WAY 12
MSHR_SIZE 64
offset bits 6
name cpu1_L1D
num_set 128
NUM_WAY 12
MSHR_SIZE 64
offset bits 6
name cpu1_L1D
num_set 128
NUM_WAY 12
MSHR_SIZE 64
offset bits 6
name cpu1_L1D
num_set 128
NUM_WAY 12
MSHR_SIZE 64
offset bits 6
name LLC
num_set 1024
NUM_WAY 4
MSHR_SIZE 64
offset bits 6
name cpu1_L1D
num_set 128
NUM_WAY 12
MSHR_SIZE 64
offset bits 6
name LLC
num_set 1024
NUM_WAY 4
MSHR_SIZE 64
offset bits 6
name cpu1_L1D
num_set 128
NUM_WAY 12
MSHR_SIZE 64
offset bits 6
name cpu1_L1D
num_set 128
NUM_WAY 12
MSHR_SIZE 64
offset bits 6
name cpu1_L1D
num_set 128
NUM_WAY 12
MSHR_SIZE 64
offset bits 6
name cpu1_L1D
num_set 128
NUM_WAY 12
MSHR_SIZE 64
offset bits 6
name cpu1_L1D
num_set 128
NUM_WAY 12
MSHR_SIZE 64
offset bits 6
name cpu1_L1D
num_set 128
NUM_WAY 12
MSHR_SIZE 64
offset bits 6
name cpu1_L1D
num_set 128
NUM_WAY 12
MSHR_SIZE 64
offset bits 6
name cpu1_L1D
num_set 128
NUM_WAY 12
MSHR_SIZE 64
offset bits 6
name cpu1_L1D
num_set 128
NUM_WAY 12
MSHR_SIZE 64
offset bits 6
name cpu1_L1D
num_set 128
NUM_WAY 12
MSHR_SIZE 64
offset bits 6
name cpu1_L1D
num_set 128
NUM_WAY 12
MSHR_SIZE 64
offset bits 6
name cpu1_L1D
num_set 128
NUM_WAY 12
MSHR_SIZE 64
offset bits 6
name cpu1_L1D
num_set 128
NUM_WAY 12
MSHR_SIZE 64
offset bits 6
name LLC
num_set 1024
NUM_WAY 4
MSHR_SIZE 64
offset bits 6
name cpu1_L1D
num_set 128
NUM_WAY 12
MSHR_SIZE 64
offset bits 6
name cpu1_L1D
num_set 128
NUM_WAY 12
MSHR_SIZE 64
offset bits 6
name cpu1_L1D
num_set 128
NUM_WAY 12
MSHR_SIZE 64
offset bits 6
name LLC
num_set 1024
NUM_WAY 4
MSHR_SIZE 64
offset bits 6
name cpu1_L1D
num_set 128
NUM_WAY 12
MSHR_SIZE 64
offset bits 6
name LLC
num_set 1024
NUM_WAY 4
MSHR_SIZE 64
offset bits 6
name LLC
num_set 1024
NUM_WAY 4
MSHR_SIZE 64
offset bits 6
name cpu1_L1D
num_set 128
NUM_WAY 12
MSHR_SIZE 64
offset bits 6
name cpu1_L1D
num_set 128
NUM_WAY 12
MSHR_SIZE 64
offset bits 6
name cpu1_L1D
num_set 128
NUM_WAY 12
MSHR_SIZE 64
offset bits 6
name cpu1_L1D
num_set 128
NUM_WAY 12
MSHR_SIZE 64
offset bits 6
name cpu1_L1D
num_set 128
NUM_WAY 12
MSHR_SIZE 64
offset bits 6
name cpu1_L1D
num_set 128
NUM_WAY 12
MSHR_SIZE 64
offset bits 6
name cpu1_L1D
num_set 128
NUM_WAY 12
MSHR_SIZE 64
offset bits 6
name cpu1_L1D
num_set 128
NUM_WAY 12
MSHR_SIZE 64
offset bits 6
name cpu1_L1D
num_set 128
NUM_WAY 12
MSHR_SIZE 64
offset bits 6
name cpu1_L1D
num_set 128
NUM_WAY 12
MSHR_SIZE 64
offset bits 6
name cpu1_L1D
num_set 128
NUM_WAY 12
MSHR_SIZE 64
offset bits 6
name cpu1_L1D
num_set 128
NUM_WAY 12
MSHR_SIZE 64
offset bits 6
name cpu1_L1D
num_set 128
NUM_WAY 12
MSHR_SIZE 64
offset bits 6
name LLC
num_set 1024
NUM_WAY 4
MSHR_SIZE 64
offset bits 6
name cpu1_DTLB
num_set 16
NUM_WAY 4
MSHR_SIZE 8
offset bits 12
name cpu1_L1D
num_set 128
NUM_WAY 12
MSHR_SIZE 64
offset bits 6
name cpu1_L1D
num_set 128
NUM_WAY 12
MSHR_SIZE 64
offset bits 6
name cpu1_L1D
num_set 128
NUM_WAY 12
MSHR_SIZE 64
offset bits 6
name cpu1_L1D
num_set 128
NUM_WAY 12
MSHR_SIZE 64
offset bits 6
name cpu1_L1D
num_set 128
NUM_WAY 12
MSHR_SIZE 64
offset bits 6
name LLC
num_set 1024
NUM_WAY 4
MSHR_SIZE 64
offset bits 6
name cpu1_L1D
num_set 128
NUM_WAY 12
MSHR_SIZE 64
offset bits 6
name cpu1_L1D
num_set 128
NUM_WAY 12
MSHR_SIZE 64
offset bits 6
name cpu1_L1D
num_set 128
NUM_WAY 12
MSHR_SIZE 64
offset bits 6
name cpu1_L1D
num_set 128
NUM_WAY 12
MSHR_SIZE 64
offset bits 6
name cpu1_L1D
num_set 128
NUM_WAY 12
MSHR_SIZE 64
offset bits 6
name cpu1_L1D
num_set 128
NUM_WAY 12
MSHR_SIZE 64
offset bits 6
name cpu1_L1D
num_set 128
NUM_WAY 12
MSHR_SIZE 64
offset bits 6
name cpu1_L1D
num_set 128
NUM_WAY 12
MSHR_SIZE 64
offset bits 6
name cpu1_L1D
num_set 128
NUM_WAY 12
MSHR_SIZE 64
offset bits 6
name cpu1_L1D
num_set 128
NUM_WAY 12
MSHR_SIZE 64
offset bits 6
name cpu1_L1D
num_set 128
NUM_WAY 12
MSHR_SIZE 64
offset bits 6
name cpu1_L1D
num_set 128
NUM_WAY 12
MSHR_SIZE 64
offset bits 6
name cpu1_L1D
num_set 128
NUM_WAY 12
MSHR_SIZE 64
offset bits 6
name LLC
num_set 1024
NUM_WAY 4
MSHR_SIZE 64
offset bits 6
name cpu1_L1D
num_set 128
NUM_WAY 12
MSHR_SIZE 64
offset bits 6
name cpu1_L1D
num_set 128
NUM_WAY 12
MSHR_SIZE 64
offset bits 6
name cpu1_L1D
num_set 128
NUM_WAY 12
MSHR_SIZE 64
offset bits 6
name cpu1_L1D
num_set 128
NUM_WAY 12
MSHR_SIZE 64
offset bits 6
name cpu1_L1D
num_set 128
NUM_WAY 12
MSHR_SIZE 64
offset bits 6
name cpu1_L1D
num_set 128
NUM_WAY 12
MSHR_SIZE 64
offset bits 6
name LLC
num_set 1024
NUM_WAY 4
MSHR_SIZE 64
offset bits 6
name cpu1_L1D
num_set 128
NUM_WAY 12
MSHR_SIZE 64
offset bits 6
name cpu1_L1D
num_set 128
NUM_WAY 12
MSHR_SIZE 64
offset bits 6
name cpu1_L1D
num_set 128
NUM_WAY 12
MSHR_SIZE 64
offset bits 6
name LLC
num_set 1024
NUM_WAY 4
MSHR_SIZE 64
offset bits 6
name cpu1_L1D
num_set 128
NUM_WAY 12
MSHR_SIZE 64
offset bits 6
name cpu1_L1D
num_set 128
NUM_WAY 12
MSHR_SIZE 64
offset bits 6
name cpu1_L1D
num_set 128
NUM_WAY 12
MSHR_SIZE 64
offset bits 6
name LLC
num_set 1024
NUM_WAY 4
MSHR_SIZE 64
offset bits 6
name cpu1_L1D
num_set 128
NUM_WAY 12
MSHR_SIZE 64
offset bits 6
name cpu1_L1D
num_set 128
NUM_WAY 12
MSHR_SIZE 64
offset bits 6
name cpu1_L1D
num_set 128
NUM_WAY 12
MSHR_SIZE 64
offset bits 6
name LLC
num_set 1024
NUM_WAY 4
MSHR_SIZE 64
offset bits 6
name cpu1_L1D
num_set 128
NUM_WAY 12
MSHR_SIZE 64
offset bits 6
name LLC
num_set 1024
NUM_WAY 4
MSHR_SIZE 64
offset bits 6
name LLC
num_set 1024
NUM_WAY 4
MSHR_SIZE 64
offset bits 6
name cpu1_L1D
num_set 128
NUM_WAY 12
MSHR_SIZE 64
offset bits 6
name LLC
num_set 1024
NUM_WAY 4
MSHR_SIZE 64
offset bits 6
name cpu1_L1D
num_set 128
NUM_WAY 12
MSHR_SIZE 64
offset bits 6
name LLC
num_set 1024
NUM_WAY 4
MSHR_SIZE 64
offset bits 6
name cpu1_L1D
num_set 128
NUM_WAY 12
MSHR_SIZE 64
offset bits 6
name cpu1_L1D
num_set 128
NUM_WAY 12
MSHR_SIZE 64
offset bits 6
name LLC
num_set 1024
NUM_WAY 4
MSHR_SIZE 64
offset bits 6
name LLC
num_set 1024
NUM_WAY 4
MSHR_SIZE 64
offset bits 6
name LLC
num_set 1024
NUM_WAY 4
MSHR_SIZE 64
offset bits 6
name LLC
num_set 1024
NUM_WAY 4
MSHR_SIZE 64
offset bits 6
name cpu1_L1D
num_set 128
NUM_WAY 12
MSHR_SIZE 64
offset bits 6
name LLC
num_set 1024
NUM_WAY 4
MSHR_SIZE 64
offset bits 6
name LLC
num_set 1024
NUM_WAY 4
MSHR_SIZE 64
offset bits 6
name LLC
num_set 1024
NUM_WAY 4
MSHR_SIZE 64
offset bits 6
name LLC
num_set 1024
NUM_WAY 4
MSHR_SIZE 64
offset bits 6
name LLC
num_set 1024
NUM_WAY 4
MSHR_SIZE 64
offset bits 6
name LLC
num_set 1024
NUM_WAY 4
MSHR_SIZE 64
offset bits 6
name cpu1_L1D
num_set 128
NUM_WAY 12
MSHR_SIZE 64
offset bits 6
name LLC
num_set 1024
NUM_WAY 4
MSHR_SIZE 64
offset bits 6
name cpu1_L1D
num_set 128
NUM_WAY 12
MSHR_SIZE 64
offset bits 6
name cpu1_L1D
num_set 128
NUM_WAY 12
MSHR_SIZE 64
offset bits 6
name cpu1_L1D
num_set 128
NUM_WAY 12
MSHR_SIZE 64
offset bits 6
name LLC
num_set 1024
NUM_WAY 4
MSHR_SIZE 64
offset bits 6
name cpu1_L1D
num_set 128
NUM_WAY 12
MSHR_SIZE 64
offset bits 6
name cpu1_L1D
num_set 128
NUM_WAY 12
MSHR_SIZE 64
offset bits 6
name LLC
num_set 1024
NUM_WAY 4
MSHR_SIZE 64
offset bits 6
name cpu1_L1D
num_set 128
NUM_WAY 12
MSHR_SIZE 64
offset bits 6
name cpu1_L1D
num_set 128
NUM_WAY 12
MSHR_SIZE 64
offset bits 6
name cpu1_L1D
num_set 128
NUM_WAY 12
MSHR_SIZE 64
offset bits 6
name LLC
num_set 1024
NUM_WAY 4
MSHR_SIZE 64
offset bits 6
name LLC
num_set 1024
NUM_WAY 4
MSHR_SIZE 64
offset bits 6
name cpu1_L1D
num_set 128
NUM_WAY 12
MSHR_SIZE 64
offset bits 6
name LLC
num_set 1024
NUM_WAY 4
MSHR_SIZE 64
offset bits 6
name LLC
num_set 1024
NUM_WAY 4
MSHR_SIZE 64
offset bits 6
name cpu1_L1D
num_set 128
NUM_WAY 12
MSHR_SIZE 64
offset bits 6
name cpu1_L1D
num_set 128
NUM_WAY 12
MSHR_SIZE 64
offset bits 6
name cpu1_L1D
num_set 128
NUM_WAY 12
MSHR_SIZE 64
offset bits 6
name LLC
num_set 1024
NUM_WAY 4
MSHR_SIZE 64
offset bits 6
name LLC
num_set 1024
NUM_WAY 4
MSHR_SIZE 64
offset bits 6
name LLC
num_set 1024
NUM_WAY 4
MSHR_SIZE 64
offset bits 6
name LLC
num_set 1024
NUM_WAY 4
MSHR_SIZE 64
offset bits 6
name LLC
num_set 1024
NUM_WAY 4
MSHR_SIZE 64
offset bits 6
name LLC
num_set 1024
NUM_WAY 4
MSHR_SIZE 64
offset bits 6
name LLC
num_set 1024
NUM_WAY 4
MSHR_SIZE 64
offset bits 6
name cpu1_L1D
num_set 128
NUM_WAY 12
MSHR_SIZE 64
offset bits 6
name LLC
num_set 1024
NUM_WAY 4
MSHR_SIZE 64
offset bits 6
name cpu1_L1D
num_set 128
NUM_WAY 12
MSHR_SIZE 64
offset bits 6
name LLC
num_set 1024
NUM_WAY 4
MSHR_SIZE 64
offset bits 6
name cpu1_L1D
num_set 128
NUM_WAY 12
MSHR_SIZE 64
offset bits 6
name LLC
num_set 1024
NUM_WAY 4
MSHR_SIZE 64
offset bits 6
name LLC
num_set 1024
NUM_WAY 4
MSHR_SIZE 64
offset bits 6
name LLC
num_set 1024
NUM_WAY 4
MSHR_SIZE 64
offset bits 6
name cpu1_L1D
num_set 128
NUM_WAY 12
MSHR_SIZE 64
offset bits 6
name LLC
num_set 1024
NUM_WAY 4
MSHR_SIZE 64
offset bits 6
name LLC
num_set 1024
NUM_WAY 4
MSHR_SIZE 64
offset bits 6
name cpu1_L1D
num_set 128
NUM_WAY 12
MSHR_SIZE 64
offset bits 6
name LLC
num_set 1024
NUM_WAY 4
MSHR_SIZE 64
offset bits 6
name cpu1_L1D
num_set 128
NUM_WAY 12
MSHR_SIZE 64
offset bits 6
name LLC
num_set 1024
NUM_WAY 4
MSHR_SIZE 64
offset bits 6
name cpu1_L1D
num_set 128
NUM_WAY 12
MSHR_SIZE 64
offset bits 6
name LLC
num_set 1024
NUM_WAY 4
MSHR_SIZE 64
offset bits 6
name cpu1_L1D
num_set 128
NUM_WAY 12
MSHR_SIZE 64
offset bits 6
name LLC
num_set 1024
NUM_WAY 4
MSHR_SIZE 64
offset bits 6
name cpu1_L1D
num_set 128
NUM_WAY 12
MSHR_SIZE 64
offset bits 6
name LLC
num_set 1024
NUM_WAY 4
MSHR_SIZE 64
offset bits 6
name cpu1_L1D
num_set 128
NUM_WAY 12
MSHR_SIZE 64
offset bits 6
name cpu1_L1D
num_set 128
NUM_WAY 12
MSHR_SIZE 64
offset bits 6
name cpu1_L1D
num_set 128
NUM_WAY 12
MSHR_SIZE 64
offset bits 6
name cpu1_L1D
num_set 128
NUM_WAY 12
MSHR_SIZE 64
offset bits 6
name cpu1_L1D
num_set 128
NUM_WAY 12
MSHR_SIZE 64
offset bits 6
name cpu1_L1D
num_set 128
NUM_WAY 12
MSHR_SIZE 64
offset bits 6
name LLC
num_set 1024
NUM_WAY 4
MSHR_SIZE 64
offset bits 6
name LLC
num_set 1024
NUM_WAY 4
MSHR_SIZE 64
offset bits 6
name LLC
num_set 1024
NUM_WAY 4
MSHR_SIZE 64
offset bits 6
name cpu1_L1D
num_set 128
NUM_WAY 12
MSHR_SIZE 64
offset bits 6
name LLC
num_set 1024
NUM_WAY 4
MSHR_SIZE 64
offset bits 6
name cpu1_L1D
num_set 128
NUM_WAY 12
MSHR_SIZE 64
offset bits 6
name LLC
num_set 1024
NUM_WAY 4
MSHR_SIZE 64
offset bits 6
name cpu1_L1D
num_set 128
NUM_WAY 12
MSHR_SIZE 64
offset bits 6
name LLC
num_set 1024
NUM_WAY 4
MSHR_SIZE 64
offset bits 6
name cpu1_L1D
num_set 128
NUM_WAY 12
MSHR_SIZE 64
offset bits 6
name cpu1_L1D
num_set 128
NUM_WAY 12
MSHR_SIZE 64
offset bits 6
name LLC
num_set 1024
NUM_WAY 4
MSHR_SIZE 64
offset bits 6
name cpu1_L1D
num_set 128
NUM_WAY 12
MSHR_SIZE 64
offset bits 6
name LLC
num_set 1024
NUM_WAY 4
MSHR_SIZE 64
offset bits 6
name LLC
num_set 1024
NUM_WAY 4
MSHR_SIZE 64
offset bits 6
name cpu1_L1D
num_set 128
NUM_WAY 12
MSHR_SIZE 64
offset bits 6
name cpu1_L1D
num_set 128
NUM_WAY 12
MSHR_SIZE 64
offset bits 6
name cpu1_L1D
num_set 128
NUM_WAY 12
MSHR_SIZE 64
offset bits 6
name cpu1_L1D
num_set 128
NUM_WAY 12
MSHR_SIZE 64
offset bits 6
name cpu1_L1D
num_set 128
NUM_WAY 12
MSHR_SIZE 64
offset bits 6
name LLC
num_set 1024
NUM_WAY 4
MSHR_SIZE 64
offset bits 6
name cpu1_L1D
num_set 128
NUM_WAY 12
MSHR_SIZE 64
offset bits 6
name LLC
num_set 1024
NUM_WAY 4
MSHR_SIZE 64
offset bits 6
name cpu1_L1D
num_set 128
NUM_WAY 12
MSHR_SIZE 64
offset bits 6
name LLC
num_set 1024
NUM_WAY 4
MSHR_SIZE 64
offset bits 6
name cpu1_L1D
num_set 128
NUM_WAY 12
MSHR_SIZE 64
offset bits 6
name LLC
num_set 1024
NUM_WAY 4
MSHR_SIZE 64
offset bits 6
name cpu1_L1D
num_set 128
NUM_WAY 12
MSHR_SIZE 64
offset bits 6
name cpu1_L1D
num_set 128
NUM_WAY 12
MSHR_SIZE 64
offset bits 6
name LLC
num_set 1024
NUM_WAY 4
MSHR_SIZE 64
offset bits 6
name cpu1_L1D
num_set 128
NUM_WAY 12
MSHR_SIZE 64
offset bits 6
name cpu1_L1D
num_set 128
NUM_WAY 12
MSHR_SIZE 64
offset bits 6
name LLC
num_set 1024
NUM_WAY 4
MSHR_SIZE 64
offset bits 6
name LLC
num_set 1024
NUM_WAY 4
MSHR_SIZE 64
offset bits 6
name cpu1_L1D
num_set 128
NUM_WAY 12
MSHR_SIZE 64
offset bits 6
name LLC
num_set 1024
NUM_WAY 4
MSHR_SIZE 64
offset bits 6
name cpu1_L1D
num_set 128
NUM_WAY 12
MSHR_SIZE 64
offset bits 6
name cpu1_L1D
num_set 128
NUM_WAY 12
MSHR_SIZE 64
offset bits 6
name cpu1_L1D
num_set 128
NUM_WAY 12
MSHR_SIZE 64
offset bits 6
name cpu1_L1D
num_set 128
NUM_WAY 12
MSHR_SIZE 64
offset bits 6
name LLC
num_set 1024
NUM_WAY 4
MSHR_SIZE 64
offset bits 6
name LLC
num_set 1024
NUM_WAY 4
MSHR_SIZE 64
offset bits 6
name cpu1_L1D
num_set 128
NUM_WAY 12
MSHR_SIZE 64
offset bits 6
name cpu1_L1D
num_set 128
NUM_WAY 12
MSHR_SIZE 64
offset bits 6
name cpu1_L1D
num_set 128
NUM_WAY 12
MSHR_SIZE 64
offset bits 6
name LLC
num_set 1024
NUM_WAY 4
MSHR_SIZE 64
offset bits 6
name cpu1_L1D
num_set 128
NUM_WAY 12
MSHR_SIZE 64
offset bits 6
name cpu1_L1D
num_set 128
NUM_WAY 12
MSHR_SIZE 64
offset bits 6
name cpu1_L1D
num_set 128
NUM_WAY 12
MSHR_SIZE 64
offset bits 6
name cpu1_L1D
num_set 128
NUM_WAY 12
MSHR_SIZE 64
offset bits 6
name cpu1_L1D
num_set 128
NUM_WAY 12
MSHR_SIZE 64
offset bits 6
name cpu1_L1D
num_set 128
NUM_WAY 12
MSHR_SIZE 64
offset bits 6
name cpu1_L1D
num_set 128
NUM_WAY 12
MSHR_SIZE 64
offset bits 6
name cpu1_L1D
num_set 128
NUM_WAY 12
MSHR_SIZE 64
offset bits 6
name cpu1_L1D
num_set 128
NUM_WAY 12
MSHR_SIZE 64
offset bits 6
name cpu1_L1D
num_set 128
NUM_WAY 12
MSHR_SIZE 64
offset bits 6
name cpu1_L1D
num_set 128
NUM_WAY 12
MSHR_SIZE 64
offset bits 6
name cpu1_L1D
num_set 128
NUM_WAY 12
MSHR_SIZE 64
offset bits 6
name cpu1_L1D
num_set 128
NUM_WAY 12
MSHR_SIZE 64
offset bits 6
name cpu1_L1D
num_set 128
NUM_WAY 12
MSHR_SIZE 64
offset bits 6
name cpu1_L1D
num_set 128
NUM_WAY 12
MSHR_SIZE 64
offset bits 6
name cpu1_L1D
num_set 128
NUM_WAY 12
MSHR_SIZE 64
offset bits 6
name cpu1_L1D
num_set 128
NUM_WAY 12
MSHR_SIZE 64
offset bits 6
name cpu1_L1D
num_set 128
NUM_WAY 12
MSHR_SIZE 64
offset bits 6
name cpu1_L1D
num_set 128
NUM_WAY 12
MSHR_SIZE 64
offset bits 6
name LLC
num_set 1024
NUM_WAY 4
MSHR_SIZE 64
offset bits 6
name cpu1_L1D
num_set 128
NUM_WAY 12
MSHR_SIZE 64
offset bits 6
name cpu1_L1D
num_set 128
NUM_WAY 12
MSHR_SIZE 64
offset bits 6
name cpu1_L1D
num_set 128
NUM_WAY 12
MSHR_SIZE 64
offset bits 6
name cpu1_L1D
num_set 128
NUM_WAY 12
MSHR_SIZE 64
offset bits 6
name cpu1_L1D
num_set 128
NUM_WAY 12
MSHR_SIZE 64
offset bits 6
name cpu1_L1D
num_set 128
NUM_WAY 12
MSHR_SIZE 64
offset bits 6
name cpu1_L1D
num_set 128
NUM_WAY 12
MSHR_SIZE 64
offset bits 6
name cpu1_L1D
num_set 128
NUM_WAY 12
MSHR_SIZE 64
offset bits 6
name cpu1_L1D
num_set 128
NUM_WAY 12
MSHR_SIZE 64
offset bits 6
name cpu1_L1D
num_set 128
NUM_WAY 12
MSHR_SIZE 64
offset bits 6
name cpu1_L1D
num_set 128
NUM_WAY 12
MSHR_SIZE 64
offset bits 6
name cpu1_L1D
num_set 128
NUM_WAY 12
MSHR_SIZE 64
offset bits 6
name cpu1_L1D
num_set 128
NUM_WAY 12
MSHR_SIZE 64
offset bits 6
name cpu1_L1D
num_set 128
NUM_WAY 12
MSHR_SIZE 64
offset bits 6
name cpu1_L1D
num_set 128
NUM_WAY 12
MSHR_SIZE 64
offset bits 6
name cpu1_L1D
num_set 128
NUM_WAY 12
MSHR_SIZE 64
offset bits 6
name cpu1_L1D
num_set 128
NUM_WAY 12
MSHR_SIZE 64
offset bits 6
name cpu1_L1D
num_set 128
NUM_WAY 12
MSHR_SIZE 64
offset bits 6
name cpu1_L1D
num_set 128
NUM_WAY 12
MSHR_SIZE 64
offset bits 6
name cpu1_L1D
num_set 128
NUM_WAY 12
MSHR_SIZE 64
offset bits 6
name cpu1_L1D
num_set 128
NUM_WAY 12
MSHR_SIZE 64
offset bits 6
name cpu1_L1D
num_set 128
NUM_WAY 12
MSHR_SIZE 64
offset bits 6
name cpu1_L1D
num_set 128
NUM_WAY 12
MSHR_SIZE 64
offset bits 6
name cpu1_L1D
num_set 128
NUM_WAY 12
MSHR_SIZE 64
offset bits 6
name cpu1_L1D
num_set 128
NUM_WAY 12
MSHR_SIZE 64
offset bits 6
name cpu1_L1D
num_set 128
NUM_WAY 12
MSHR_SIZE 64
offset bits 6
name cpu1_L1D
num_set 128
NUM_WAY 12
MSHR_SIZE 64
offset bits 6
name cpu1_L1D
num_set 128
NUM_WAY 12
MSHR_SIZE 64
offset bits 6
name cpu1_L1D
num_set 128
NUM_WAY 12
MSHR_SIZE 64
offset bits 6
name cpu1_L1D
num_set 128
NUM_WAY 12
MSHR_SIZE 64
offset bits 6
name cpu1_L1D
num_set 128
NUM_WAY 12
MSHR_SIZE 64
offset bits 6
name cpu1_L1D
num_set 128
NUM_WAY 12
MSHR_SIZE 64
offset bits 6
name cpu1_L1D
num_set 128
NUM_WAY 12
MSHR_SIZE 64
offset bits 6
name cpu1_L1D
num_set 128
NUM_WAY 12
MSHR_SIZE 64
offset bits 6
name cpu1_L1D
num_set 128
NUM_WAY 12
MSHR_SIZE 64
offset bits 6
name LLC
num_set 1024
NUM_WAY 4
MSHR_SIZE 64
offset bits 6
name cpu1_L1D
num_set 128
NUM_WAY 12
MSHR_SIZE 64
offset bits 6
name cpu1_L1D
num_set 128
NUM_WAY 12
MSHR_SIZE 64
offset bits 6
name cpu1_L1D
num_set 128
NUM_WAY 12
MSHR_SIZE 64
offset bits 6
name cpu1_L1D
num_set 128
NUM_WAY 12
MSHR_SIZE 64
offset bits 6
name cpu1_L1D
num_set 128
NUM_WAY 12
MSHR_SIZE 64
offset bits 6
name cpu1_L1D
num_set 128
NUM_WAY 12
MSHR_SIZE 64
offset bits 6
name cpu1_L1D
num_set 128
NUM_WAY 12
MSHR_SIZE 64
offset bits 6
name cpu1_L1D
num_set 128
NUM_WAY 12
MSHR_SIZE 64
offset bits 6
name cpu1_L1D
num_set 128
NUM_WAY 12
MSHR_SIZE 64
offset bits 6
name cpu1_L1D
num_set 128
NUM_WAY 12
MSHR_SIZE 64
offset bits 6
name cpu1_L1D
num_set 128
NUM_WAY 12
MSHR_SIZE 64
offset bits 6
name cpu1_L1D
num_set 128
NUM_WAY 12
MSHR_SIZE 64
offset bits 6
name cpu1_L1D
num_set 128
NUM_WAY 12
MSHR_SIZE 64
offset bits 6
name cpu1_L1D
num_set 128
NUM_WAY 12
MSHR_SIZE 64
offset bits 6
name cpu1_L1D
num_set 128
NUM_WAY 12
MSHR_SIZE 64
offset bits 6
name cpu1_L1D
num_set 128
NUM_WAY 12
MSHR_SIZE 64
offset bits 6
name LLC
num_set 1024
NUM_WAY 4
MSHR_SIZE 64
offset bits 6
name cpu1_L1D
num_set 128
NUM_WAY 12
MSHR_SIZE 64
offset bits 6
name cpu1_L1D
num_set 128
NUM_WAY 12
MSHR_SIZE 64
offset bits 6
name cpu1_L1D
num_set 128
NUM_WAY 12
MSHR_SIZE 64
offset bits 6
name cpu1_L1D
num_set 128
NUM_WAY 12
MSHR_SIZE 64
offset bits 6
name LLC
num_set 1024
NUM_WAY 4
MSHR_SIZE 64
offset bits 6
name LLC
num_set 1024
NUM_WAY 4
MSHR_SIZE 64
offset bits 6
name cpu1_L1D
num_set 128
NUM_WAY 12
MSHR_SIZE 64
offset bits 6
name cpu1_L1D
num_set 128
NUM_WAY 12
MSHR_SIZE 64
offset bits 6
name cpu1_L1D
num_set 128
NUM_WAY 12
MSHR_SIZE 64
offset bits 6
name cpu1_L1D
num_set 128
NUM_WAY 12
MSHR_SIZE 64
offset bits 6
name cpu1_L1D
num_set 128
NUM_WAY 12
MSHR_SIZE 64
offset bits 6
name cpu1_L1D
num_set 128
NUM_WAY 12
MSHR_SIZE 64
offset bits 6
name cpu1_L1D
num_set 128
NUM_WAY 12
MSHR_SIZE 64
offset bits 6
name cpu1_L1D
num_set 128
NUM_WAY 12
MSHR_SIZE 64
offset bits 6
name cpu1_L1D
num_set 128
NUM_WAY 12
MSHR_SIZE 64
offset bits 6
name cpu1_L1D
num_set 128
NUM_WAY 12
MSHR_SIZE 64
offset bits 6
name cpu1_L1D
num_set 128
NUM_WAY 12
MSHR_SIZE 64
offset bits 6
name cpu1_L1D
num_set 128
NUM_WAY 12
MSHR_SIZE 64
offset bits 6
name cpu1_L1D
num_set 128
NUM_WAY 12
MSHR_SIZE 64
offset bits 6
name cpu1_L1D
num_set 128
NUM_WAY 12
MSHR_SIZE 64
offset bits 6
name cpu1_L1D
num_set 128
NUM_WAY 12
MSHR_SIZE 64
offset bits 6
name cpu1_L1D
num_set 128
NUM_WAY 12
MSHR_SIZE 64
offset bits 6
name cpu1_L1D
num_set 128
NUM_WAY 12
MSHR_SIZE 64
offset bits 6
name cpu1_L1D
num_set 128
NUM_WAY 12
MSHR_SIZE 64
offset bits 6
name cpu1_L1D
num_set 128
NUM_WAY 12
MSHR_SIZE 64
offset bits 6
name LLC
num_set 1024
NUM_WAY 4
MSHR_SIZE 64
offset bits 6
name LLC
num_set 1024
NUM_WAY 4
MSHR_SIZE 64
offset bits 6
name LLC
num_set 1024
NUM_WAY 4
MSHR_SIZE 64
offset bits 6
name cpu1_L1D
num_set 128
NUM_WAY 12
MSHR_SIZE 64
offset bits 6
name cpu1_L1D
num_set 128
NUM_WAY 12
MSHR_SIZE 64
offset bits 6
name cpu1_L1D
num_set 128
NUM_WAY 12
MSHR_SIZE 64
offset bits 6
name cpu1_L1D
num_set 128
NUM_WAY 12
MSHR_SIZE 64
offset bits 6
name cpu1_L1D
num_set 128
NUM_WAY 12
MSHR_SIZE 64
offset bits 6
name LLC
num_set 1024
NUM_WAY 4
MSHR_SIZE 64
offset bits 6
name LLC
num_set 1024
NUM_WAY 4
MSHR_SIZE 64
offset bits 6
name cpu1_L1D
num_set 128
NUM_WAY 12
MSHR_SIZE 64
offset bits 6
name cpu1_L1D
num_set 128
NUM_WAY 12
MSHR_SIZE 64
offset bits 6
name cpu1_L1D
num_set 128
NUM_WAY 12
MSHR_SIZE 64
offset bits 6
name cpu1_L1D
num_set 128
NUM_WAY 12
MSHR_SIZE 64
offset bits 6
name cpu1_L1D
num_set 128
NUM_WAY 12
MSHR_SIZE 64
offset bits 6
name LLC
num_set 1024
NUM_WAY 4
MSHR_SIZE 64
offset bits 6
name cpu1_L1D
num_set 128
NUM_WAY 12
MSHR_SIZE 64
offset bits 6
name LLC
num_set 1024
NUM_WAY 4
MSHR_SIZE 64
offset bits 6
name cpu1_L1D
num_set 128
NUM_WAY 12
MSHR_SIZE 64
offset bits 6
name cpu1_L1D
num_set 128
NUM_WAY 12
MSHR_SIZE 64
offset bits 6
name cpu1_L1D
num_set 128
NUM_WAY 12
MSHR_SIZE 64
offset bits 6
name LLC
num_set 1024
NUM_WAY 4
MSHR_SIZE 64
offset bits 6
name cpu1_L1D
num_set 128
NUM_WAY 12
MSHR_SIZE 64
offset bits 6
name LLC
num_set 1024
NUM_WAY 4
MSHR_SIZE 64
offset bits 6
name LLC
num_set 1024
NUM_WAY 4
MSHR_SIZE 64
offset bits 6
name cpu1_L1D
num_set 128
NUM_WAY 12
MSHR_SIZE 64
offset bits 6
name LLC
num_set 1024
NUM_WAY 4
MSHR_SIZE 64
offset bits 6
name LLC
num_set 1024
NUM_WAY 4
MSHR_SIZE 64
offset bits 6
name LLC
num_set 1024
NUM_WAY 4
MSHR_SIZE 64
offset bits 6
name LLC
num_set 1024
NUM_WAY 4
MSHR_SIZE 64
offset bits 6
name cpu1_L1D
num_set 128
NUM_WAY 12
MSHR_SIZE 64
offset bits 6
name LLC
num_set 1024
NUM_WAY 4
MSHR_SIZE 64
offset bits 6
name LLC
num_set 1024
NUM_WAY 4
MSHR_SIZE 64
offset bits 6
name cpu1_L1D
num_set 128
NUM_WAY 12
MSHR_SIZE 64
offset bits 6
name LLC
num_set 1024
NUM_WAY 4
MSHR_SIZE 64
offset bits 6
name cpu1_L1D
num_set 128
NUM_WAY 12
MSHR_SIZE 64
offset bits 6
name LLC
num_set 1024
NUM_WAY 4
MSHR_SIZE 64
offset bits 6
name cpu1_L1D
num_set 128
NUM_WAY 12
MSHR_SIZE 64
offset bits 6
name LLC
num_set 1024
NUM_WAY 4
MSHR_SIZE 64
offset bits 6
name LLC
num_set 1024
NUM_WAY 4
MSHR_SIZE 64
offset bits 6
name LLC
num_set 1024
NUM_WAY 4
MSHR_SIZE 64
offset bits 6
name LLC
num_set 1024
NUM_WAY 4
MSHR_SIZE 64
offset bits 6
name LLC
num_set 1024
NUM_WAY 4
MSHR_SIZE 64
offset bits 6
name cpu1_L1D
num_set 128
NUM_WAY 12
MSHR_SIZE 64
offset bits 6
name cpu1_L1D
num_set 128
NUM_WAY 12
MSHR_SIZE 64
offset bits 6
name LLC
num_set 1024
NUM_WAY 4
MSHR_SIZE 64
offset bits 6
name LLC
num_set 1024
NUM_WAY 4
MSHR_SIZE 64
offset bits 6
name cpu1_L1D
num_set 128
NUM_WAY 12
MSHR_SIZE 64
offset bits 6
name LLC
num_set 1024
NUM_WAY 4
MSHR_SIZE 64
offset bits 6
name cpu1_L1D
num_set 128
NUM_WAY 12
MSHR_SIZE 64
offset bits 6
name cpu1_L1D
num_set 128
NUM_WAY 12
MSHR_SIZE 64
offset bits 6
name LLC
num_set 1024
NUM_WAY 4
MSHR_SIZE 64
offset bits 6
name LLC
num_set 1024
NUM_WAY 4
MSHR_SIZE 64
offset bits 6
name cpu1_L1D
num_set 128
NUM_WAY 12
MSHR_SIZE 64
offset bits 6
name cpu1_L1D
num_set 128
NUM_WAY 12
MSHR_SIZE 64
offset bits 6
name cpu1_L1D
num_set 128
NUM_WAY 12
MSHR_SIZE 64
offset bits 6
name LLC
num_set 1024
NUM_WAY 4
MSHR_SIZE 64
offset bits 6
name cpu1_L1D
num_set 128
NUM_WAY 12
MSHR_SIZE 64
offset bits 6
name cpu1_L1D
num_set 128
NUM_WAY 12
MSHR_SIZE 64
offset bits 6
name cpu1_L1D
num_set 128
NUM_WAY 12
MSHR_SIZE 64
offset bits 6
name LLC
num_set 1024
NUM_WAY 4
MSHR_SIZE 64
offset bits 6
name LLC
num_set 1024
NUM_WAY 4
MSHR_SIZE 64
offset bits 6
name cpu1_L1D
num_set 128
NUM_WAY 12
MSHR_SIZE 64
offset bits 6
name LLC
num_set 1024
NUM_WAY 4
MSHR_SIZE 64
offset bits 6
name LLC
num_set 1024
NUM_WAY 4
MSHR_SIZE 64
offset bits 6
name LLC
num_set 1024
NUM_WAY 4
MSHR_SIZE 64
offset bits 6
name cpu1_L1D
num_set 128
NUM_WAY 12
MSHR_SIZE 64
offset bits 6
name LLC
num_set 1024
NUM_WAY 4
MSHR_SIZE 64
offset bits 6
name LLC
num_set 1024
NUM_WAY 4
MSHR_SIZE 64
offset bits 6
name cpu1_L1D
num_set 128
NUM_WAY 12
MSHR_SIZE 64
offset bits 6
name cpu1_L1D
num_set 128
NUM_WAY 12
MSHR_SIZE 64
offset bits 6
name LLC
num_set 1024
NUM_WAY 4
MSHR_SIZE 64
offset bits 6
name LLC
num_set 1024
NUM_WAY 4
MSHR_SIZE 64
offset bits 6
name LLC
num_set 1024
NUM_WAY 4
MSHR_SIZE 64
offset bits 6
name LLC
num_set 1024
NUM_WAY 4
MSHR_SIZE 64
offset bits 6
name cpu1_L1D
num_set 128
NUM_WAY 12
MSHR_SIZE 64
offset bits 6
name cpu1_L1D
num_set 128
NUM_WAY 12
MSHR_SIZE 64
offset bits 6
name LLC
num_set 1024
NUM_WAY 4
MSHR_SIZE 64
offset bits 6
name cpu1_L1D
num_set 128
NUM_WAY 12
MSHR_SIZE 64
offset bits 6
name cpu1_L1D
num_set 128
NUM_WAY 12
MSHR_SIZE 64
offset bits 6
name LLC
num_set 1024
NUM_WAY 4
MSHR_SIZE 64
offset bits 6
name cpu1_L1D
num_set 128
NUM_WAY 12
MSHR_SIZE 64
offset bits 6
name LLC
num_set 1024
NUM_WAY 4
MSHR_SIZE 64
offset bits 6
name LLC
num_set 1024
NUM_WAY 4
MSHR_SIZE 64
offset bits 6
name cpu1_L1D
num_set 128
NUM_WAY 12
MSHR_SIZE 64
offset bits 6
name LLC
num_set 1024
NUM_WAY 4
MSHR_SIZE 64
offset bits 6
name cpu1_L1D
num_set 128
NUM_WAY 12
MSHR_SIZE 64
offset bits 6
name cpu1_L1D
num_set 128
NUM_WAY 12
MSHR_SIZE 64
offset bits 6
name cpu1_L1D
num_set 128
NUM_WAY 12
MSHR_SIZE 64
offset bits 6
name LLC
num_set 1024
NUM_WAY 4
MSHR_SIZE 64
offset bits 6
name cpu1_L1D
num_set 128
NUM_WAY 12
MSHR_SIZE 64
offset bits 6
name cpu1_L1D
num_set 128
NUM_WAY 12
MSHR_SIZE 64
offset bits 6
name cpu1_L1D
num_set 128
NUM_WAY 12
MSHR_SIZE 64
offset bits 6
name cpu1_L1D
num_set 128
NUM_WAY 12
MSHR_SIZE 64
offset bits 6
name cpu1_L1D
num_set 128
NUM_WAY 12
MSHR_SIZE 64
offset bits 6
name cpu1_L1D
num_set 128
NUM_WAY 12
MSHR_SIZE 64
offset bits 6
name cpu1_L1D
num_set 128
NUM_WAY 12
MSHR_SIZE 64
offset bits 6
name cpu1_L1D
num_set 128
NUM_WAY 12
MSHR_SIZE 64
offset bits 6
name cpu1_L1D
num_set 128
NUM_WAY 12
MSHR_SIZE 64
offset bits 6
name cpu1_L1D
num_set 128
NUM_WAY 12
MSHR_SIZE 64
offset bits 6
name cpu1_L1D
num_set 128
NUM_WAY 12
MSHR_SIZE 64
offset bits 6
name LLC
num_set 1024
NUM_WAY 4
MSHR_SIZE 64
offset bits 6
name cpu1_L1D
num_set 128
NUM_WAY 12
MSHR_SIZE 64
offset bits 6
name cpu1_L1D
num_set 128
NUM_WAY 12
MSHR_SIZE 64
offset bits 6
name cpu1_L1D
num_set 128
NUM_WAY 12
MSHR_SIZE 64
offset bits 6
name LLC
num_set 1024
NUM_WAY 4
MSHR_SIZE 64
offset bits 6
name cpu1_L1D
num_set 128
NUM_WAY 12
MSHR_SIZE 64
offset bits 6
name cpu1_L1D
num_set 128
NUM_WAY 12
MSHR_SIZE 64
offset bits 6
name cpu1_L1D
num_set 128
NUM_WAY 12
MSHR_SIZE 64
offset bits 6
name cpu1_L1D
num_set 128
NUM_WAY 12
MSHR_SIZE 64
offset bits 6
name cpu1_L1D
num_set 128
NUM_WAY 12
MSHR_SIZE 64
offset bits 6
name LLC
num_set 1024
NUM_WAY 4
MSHR_SIZE 64
offset bits 6
name cpu1_L1D
num_set 128
NUM_WAY 12
MSHR_SIZE 64
offset bits 6
name LLC
num_set 1024
NUM_WAY 4
MSHR_SIZE 64
offset bits 6
name LLC
num_set 1024
NUM_WAY 4
MSHR_SIZE 64
offset bits 6
name LLC
num_set 1024
NUM_WAY 4
MSHR_SIZE 64
offset bits 6
name cpu1_L1D
num_set 128
NUM_WAY 12
MSHR_SIZE 64
offset bits 6
name cpu1_L1D
num_set 128
NUM_WAY 12
MSHR_SIZE 64
offset bits 6
name cpu1_L1D
num_set 128
NUM_WAY 12
MSHR_SIZE 64
offset bits 6
name cpu1_L1D
num_set 128
NUM_WAY 12
MSHR_SIZE 64
offset bits 6
name LLC
num_set 1024
NUM_WAY 4
MSHR_SIZE 64
offset bits 6
name cpu1_L1D
num_set 128
NUM_WAY 12
MSHR_SIZE 64
offset bits 6
name cpu1_L1D
num_set 128
NUM_WAY 12
MSHR_SIZE 64
offset bits 6
name cpu1_L1D
num_set 128
NUM_WAY 12
MSHR_SIZE 64
offset bits 6
name cpu1_L1D
num_set 128
NUM_WAY 12
MSHR_SIZE 64
offset bits 6
name LLC
num_set 1024
NUM_WAY 4
MSHR_SIZE 64
offset bits 6
name cpu1_L1D
num_set 128
NUM_WAY 12
MSHR_SIZE 64
offset bits 6
name cpu1_L1D
num_set 128
NUM_WAY 12
MSHR_SIZE 64
offset bits 6
name LLC
num_set 1024
NUM_WAY 4
MSHR_SIZE 64
offset bits 6
name cpu1_L1D
num_set 128
NUM_WAY 12
MSHR_SIZE 64
offset bits 6
name LLC
num_set 1024
NUM_WAY 4
MSHR_SIZE 64
offset bits 6
name LLC
num_set 1024
NUM_WAY 4
MSHR_SIZE 64
offset bits 6
name cpu1_L1D
num_set 128
NUM_WAY 12
MSHR_SIZE 64
offset bits 6
name cpu1_L1D
num_set 128
NUM_WAY 12
MSHR_SIZE 64
offset bits 6
name cpu1_L1D
num_set 128
NUM_WAY 12
MSHR_SIZE 64
offset bits 6
name cpu1_L1D
num_set 128
NUM_WAY 12
MSHR_SIZE 64
offset bits 6
name LLC
num_set 1024
NUM_WAY 4
MSHR_SIZE 64
offset bits 6
name LLC
num_set 1024
NUM_WAY 4
MSHR_SIZE 64
offset bits 6
name cpu1_L1D
num_set 128
NUM_WAY 12
MSHR_SIZE 64
offset bits 6
name cpu1_L1D
num_set 128
NUM_WAY 12
MSHR_SIZE 64
offset bits 6
name cpu1_L1D
num_set 128
NUM_WAY 12
MSHR_SIZE 64
offset bits 6
name cpu1_L1D
num_set 128
NUM_WAY 12
MSHR_SIZE 64
offset bits 6
name cpu1_L1D
num_set 128
NUM_WAY 12
MSHR_SIZE 64
offset bits 6
name LLC
num_set 1024
NUM_WAY 4
MSHR_SIZE 64
offset bits 6
name cpu1_L1D
num_set 128
NUM_WAY 12
MSHR_SIZE 64
offset bits 6
name LLC
num_set 1024
NUM_WAY 4
MSHR_SIZE 64
offset bits 6
name cpu1_L1D
num_set 128
NUM_WAY 12
MSHR_SIZE 64
offset bits 6
name cpu1_L1D
num_set 128
NUM_WAY 12
MSHR_SIZE 64
offset bits 6
name cpu1_L1D
num_set 128
NUM_WAY 12
MSHR_SIZE 64
offset bits 6
name cpu1_L1D
num_set 128
NUM_WAY 12
MSHR_SIZE 64
offset bits 6
name cpu1_L1D
num_set 128
NUM_WAY 12
MSHR_SIZE 64
offset bits 6
name cpu1_L1D
num_set 128
NUM_WAY 12
MSHR_SIZE 64
offset bits 6
name cpu1_L1D
num_set 128
NUM_WAY 12
MSHR_SIZE 64
offset bits 6
name cpu1_L1D
num_set 128
NUM_WAY 12
MSHR_SIZE 64
offset bits 6
name cpu1_L1D
num_set 128
NUM_WAY 12
MSHR_SIZE 64
offset bits 6
name cpu1_L1D
num_set 128
NUM_WAY 12
MSHR_SIZE 64
offset bits 6
name cpu1_L1D
num_set 128
NUM_WAY 12
MSHR_SIZE 64
offset bits 6
name LLC
num_set 1024
NUM_WAY 4
MSHR_SIZE 64
offset bits 6
name cpu1_L1D
num_set 128
NUM_WAY 12
MSHR_SIZE 64
offset bits 6
name cpu1_L1D
num_set 128
NUM_WAY 12
MSHR_SIZE 64
offset bits 6
name cpu1_L1D
num_set 128
NUM_WAY 12
MSHR_SIZE 64
offset bits 6
name cpu1_L1D
num_set 128
NUM_WAY 12
MSHR_SIZE 64
offset bits 6
name cpu1_L1D
num_set 128
NUM_WAY 12
MSHR_SIZE 64
offset bits 6
name cpu1_L1D
num_set 128
NUM_WAY 12
MSHR_SIZE 64
offset bits 6
name LLC
num_set 1024
NUM_WAY 4
MSHR_SIZE 64
offset bits 6
name cpu1_L1D
num_set 128
NUM_WAY 12
MSHR_SIZE 64
offset bits 6
name cpu1_L1D
num_set 128
NUM_WAY 12
MSHR_SIZE 64
offset bits 6
name cpu1_L1D
num_set 128
NUM_WAY 12
MSHR_SIZE 64
offset bits 6
name cpu1_L1D
num_set 128
NUM_WAY 12
MSHR_SIZE 64
offset bits 6
name cpu1_L1D
num_set 128
NUM_WAY 12
MSHR_SIZE 64
offset bits 6
name LLC
num_set 1024
NUM_WAY 4
MSHR_SIZE 64
offset bits 6
name cpu1_L1D
num_set 128
NUM_WAY 12
MSHR_SIZE 64
offset bits 6
name cpu1_L1D
num_set 128
NUM_WAY 12
MSHR_SIZE 64
offset bits 6
name LLC
num_set 1024
NUM_WAY 4
MSHR_SIZE 64
offset bits 6
name LLC
num_set 1024
NUM_WAY 4
MSHR_SIZE 64
offset bits 6
name cpu1_L1D
num_set 128
NUM_WAY 12
MSHR_SIZE 64
offset bits 6
name cpu1_L1D
num_set 128
NUM_WAY 12
MSHR_SIZE 64
offset bits 6
name cpu1_L1D
num_set 128
NUM_WAY 12
MSHR_SIZE 64
offset bits 6
name cpu1_L1D
num_set 128
NUM_WAY 12
MSHR_SIZE 64
offset bits 6
name LLC
num_set 1024
NUM_WAY 4
MSHR_SIZE 64
offset bits 6
name cpu1_L1D
num_set 128
NUM_WAY 12
MSHR_SIZE 64
offset bits 6
name LLC
num_set 1024
NUM_WAY 4
MSHR_SIZE 64
offset bits 6
name cpu1_L1D
num_set 128
NUM_WAY 12
MSHR_SIZE 64
offset bits 6
name cpu1_L1D
num_set 128
NUM_WAY 12
MSHR_SIZE 64
offset bits 6
name cpu1_L1D
num_set 128
NUM_WAY 12
MSHR_SIZE 64
offset bits 6
name LLC
num_set 1024
NUM_WAY 4
MSHR_SIZE 64
offset bits 6
name LLC
num_set 1024
NUM_WAY 4
MSHR_SIZE 64
offset bits 6
name cpu1_L1D
num_set 128
NUM_WAY 12
MSHR_SIZE 64
offset bits 6
name LLC
num_set 1024
NUM_WAY 4
MSHR_SIZE 64
offset bits 6
name LLC
num_set 1024
NUM_WAY 4
MSHR_SIZE 64
offset bits 6
name cpu1_L1D
num_set 128
NUM_WAY 12
MSHR_SIZE 64
offset bits 6
name cpu1_L1D
num_set 128
NUM_WAY 12
MSHR_SIZE 64
offset bits 6
name LLC
num_set 1024
NUM_WAY 4
MSHR_SIZE 64
offset bits 6
name cpu1_L1D
num_set 128
NUM_WAY 12
MSHR_SIZE 64
offset bits 6
name cpu1_L1D
num_set 128
NUM_WAY 12
MSHR_SIZE 64
offset bits 6
name cpu1_L1D
num_set 128
NUM_WAY 12
MSHR_SIZE 64
offset bits 6
name LLC
num_set 1024
NUM_WAY 4
MSHR_SIZE 64
offset bits 6
name cpu1_L1D
num_set 128
NUM_WAY 12
MSHR_SIZE 64
offset bits 6
name LLC
num_set 1024
NUM_WAY 4
MSHR_SIZE 64
offset bits 6
name cpu1_L1D
num_set 128
NUM_WAY 12
MSHR_SIZE 64
offset bits 6
name cpu1_L1D
num_set 128
NUM_WAY 12
MSHR_SIZE 64
offset bits 6
name cpu1_L1D
num_set 128
NUM_WAY 12
MSHR_SIZE 64
offset bits 6
name cpu1_L1D
num_set 128
NUM_WAY 12
MSHR_SIZE 64
offset bits 6
name cpu1_L1D
num_set 128
NUM_WAY 12
MSHR_SIZE 64
offset bits 6
name cpu1_L1D
num_set 128
NUM_WAY 12
MSHR_SIZE 64
offset bits 6
name cpu1_L1D
num_set 128
NUM_WAY 12
MSHR_SIZE 64
offset bits 6
name cpu1_L1D
num_set 128
NUM_WAY 12
MSHR_SIZE 64
offset bits 6
name LLC
num_set 1024
NUM_WAY 4
MSHR_SIZE 64
offset bits 6
name cpu1_L1D
num_set 128
NUM_WAY 12
MSHR_SIZE 64
offset bits 6
name cpu1_L1D
num_set 128
NUM_WAY 12
MSHR_SIZE 64
offset bits 6
name cpu1_L1D
num_set 128
NUM_WAY 12
MSHR_SIZE 64
offset bits 6
name cpu1_L1D
num_set 128
NUM_WAY 12
MSHR_SIZE 64
offset bits 6
name cpu1_L1D
num_set 128
NUM_WAY 12
MSHR_SIZE 64
offset bits 6
name LLC
num_set 1024
NUM_WAY 4
MSHR_SIZE 64
offset bits 6
name cpu1_L1D
num_set 128
NUM_WAY 12
MSHR_SIZE 64
offset bits 6
name LLC
num_set 1024
NUM_WAY 4
MSHR_SIZE 64
offset bits 6
name cpu1_DTLB
num_set 16
NUM_WAY 4
MSHR_SIZE 8
offset bits 12
name cpu1_L1D
num_set 128
NUM_WAY 12
MSHR_SIZE 64
offset bits 6
name cpu1_L1D
num_set 128
NUM_WAY 12
MSHR_SIZE 64
offset bits 6
name cpu1_L1D
num_set 128
NUM_WAY 12
MSHR_SIZE 64
offset bits 6
name cpu1_L1D
num_set 128
NUM_WAY 12
MSHR_SIZE 64
offset bits 6
name cpu1_L1D
num_set 128
NUM_WAY 12
MSHR_SIZE 64
offset bits 6
name cpu1_L1D
num_set 128
NUM_WAY 12
MSHR_SIZE 64
offset bits 6
name cpu1_L1D
num_set 128
NUM_WAY 12
MSHR_SIZE 64
offset bits 6
name cpu1_L1D
num_set 128
NUM_WAY 12
MSHR_SIZE 64
offset bits 6
name cpu1_L1D
num_set 128
NUM_WAY 12
MSHR_SIZE 64
offset bits 6
name cpu1_L1D
num_set 128
NUM_WAY 12
MSHR_SIZE 64
offset bits 6
name cpu1_L1D
num_set 128
NUM_WAY 12
MSHR_SIZE 64
offset bits 6
name LLC
num_set 1024
NUM_WAY 4
MSHR_SIZE 64
offset bits 6
name cpu1_L1D
num_set 128
NUM_WAY 12
MSHR_SIZE 64
offset bits 6
name cpu1_L1D
num_set 128
NUM_WAY 12
MSHR_SIZE 64
offset bits 6
name cpu1_L1D
num_set 128
NUM_WAY 12
MSHR_SIZE 64
offset bits 6
name cpu1_L1D
num_set 128
NUM_WAY 12
MSHR_SIZE 64
offset bits 6
name cpu1_L1D
num_set 128
NUM_WAY 12
MSHR_SIZE 64
offset bits 6
name cpu1_L1D
num_set 128
NUM_WAY 12
MSHR_SIZE 64
offset bits 6
name cpu1_L1D
num_set 128
NUM_WAY 12
MSHR_SIZE 64
offset bits 6
name LLC
num_set 1024
NUM_WAY 4
MSHR_SIZE 64
offset bits 6
name cpu1_L1D
num_set 128
NUM_WAY 12
MSHR_SIZE 64
offset bits 6
name cpu1_L1D
num_set 128
NUM_WAY 12
MSHR_SIZE 64
offset bits 6
name cpu1_L1D
num_set 128
NUM_WAY 12
MSHR_SIZE 64
offset bits 6
name cpu1_L1D
num_set 128
NUM_WAY 12
MSHR_SIZE 64
offset bits 6
name LLC
num_set 1024
NUM_WAY 4
MSHR_SIZE 64
offset bits 6
name cpu1_L1D
num_set 128
NUM_WAY 12
MSHR_SIZE 64
offset bits 6
name cpu1_L1D
num_set 128
NUM_WAY 12
MSHR_SIZE 64
offset bits 6
name cpu1_L1D
num_set 128
NUM_WAY 12
MSHR_SIZE 64
offset bits 6
name cpu1_L1D
num_set 128
NUM_WAY 12
MSHR_SIZE 64
offset bits 6
name cpu1_L1D
num_set 128
NUM_WAY 12
MSHR_SIZE 64
offset bits 6
name cpu1_L1D
num_set 128
NUM_WAY 12
MSHR_SIZE 64
offset bits 6
name LLC
num_set 1024
NUM_WAY 4
MSHR_SIZE 64
offset bits 6
name LLC
num_set 1024
NUM_WAY 4
MSHR_SIZE 64
offset bits 6
name cpu1_L1D
num_set 128
NUM_WAY 12
MSHR_SIZE 64
offset bits 6
name cpu1_L1D
num_set 128
NUM_WAY 12
MSHR_SIZE 64
offset bits 6
name cpu1_L1D
num_set 128
NUM_WAY 12
MSHR_SIZE 64
offset bits 6
name cpu1_L1D
num_set 128
NUM_WAY 12
MSHR_SIZE 64
offset bits 6
name cpu1_DTLB
num_set 16
NUM_WAY 4
MSHR_SIZE 8
offset bits 12
name LLC
num_set 1024
NUM_WAY 4
MSHR_SIZE 64
offset bits 6
name LLC
num_set 1024
NUM_WAY 4
MSHR_SIZE 64
offset bits 6
name cpu1_L1D
num_set 128
NUM_WAY 12
MSHR_SIZE 64
offset bits 6
name cpu1_L1D
num_set 128
NUM_WAY 12
MSHR_SIZE 64
offset bits 6
name cpu1_L1D
num_set 128
NUM_WAY 12
MSHR_SIZE 64
offset bits 6
name cpu1_L1D
num_set 128
NUM_WAY 12
MSHR_SIZE 64
offset bits 6
name cpu1_L1D
num_set 128
NUM_WAY 12
MSHR_SIZE 64
offset bits 6
name cpu1_L1D
num_set 128
NUM_WAY 12
MSHR_SIZE 64
offset bits 6
name cpu1_L1D
num_set 128
NUM_WAY 12
MSHR_SIZE 64
offset bits 6
name LLC
num_set 1024
NUM_WAY 4
MSHR_SIZE 64
offset bits 6
name cpu1_L1D
num_set 128
NUM_WAY 12
MSHR_SIZE 64
offset bits 6
name LLC
num_set 1024
NUM_WAY 4
MSHR_SIZE 64
offset bits 6
name cpu1_L1D
num_set 128
NUM_WAY 12
MSHR_SIZE 64
offset bits 6
name cpu1_L1D
num_set 128
NUM_WAY 12
MSHR_SIZE 64
offset bits 6
name cpu1_L1D
num_set 128
NUM_WAY 12
MSHR_SIZE 64
offset bits 6
name cpu1_L1D
num_set 128
NUM_WAY 12
MSHR_SIZE 64
offset bits 6
name cpu1_L1D
num_set 128
NUM_WAY 12
MSHR_SIZE 64
offset bits 6
name cpu1_L1D
num_set 128
NUM_WAY 12
MSHR_SIZE 64
offset bits 6
name cpu1_L1D
num_set 128
NUM_WAY 12
MSHR_SIZE 64
offset bits 6
name cpu1_L1D
num_set 128
NUM_WAY 12
MSHR_SIZE 64
offset bits 6
name cpu1_L1D
num_set 128
NUM_WAY 12
MSHR_SIZE 64
offset bits 6
name cpu1_L1D
num_set 128
NUM_WAY 12
MSHR_SIZE 64
offset bits 6
name LLC
num_set 1024
NUM_WAY 4
MSHR_SIZE 64
offset bits 6
name cpu1_L1D
num_set 128
NUM_WAY 12
MSHR_SIZE 64
offset bits 6
name cpu1_L1D
num_set 128
NUM_WAY 12
MSHR_SIZE 64
offset bits 6
name cpu1_L1D
num_set 128
NUM_WAY 12
MSHR_SIZE 64
offset bits 6
name cpu1_L1D
num_set 128
NUM_WAY 12
MSHR_SIZE 64
offset bits 6
name cpu1_L1D
num_set 128
NUM_WAY 12
MSHR_SIZE 64
offset bits 6
name LLC
num_set 1024
NUM_WAY 4
MSHR_SIZE 64
offset bits 6
name LLC
num_set 1024
NUM_WAY 4
MSHR_SIZE 64
offset bits 6
name cpu1_L1D
num_set 128
NUM_WAY 12
MSHR_SIZE 64
offset bits 6
name cpu1_L1D
num_set 128
NUM_WAY 12
MSHR_SIZE 64
offset bits 6
name cpu1_L1D
num_set 128
NUM_WAY 12
MSHR_SIZE 64
offset bits 6
name cpu1_L1D
num_set 128
NUM_WAY 12
MSHR_SIZE 64
offset bits 6
name LLC
num_set 1024
NUM_WAY 4
MSHR_SIZE 64
offset bits 6
name LLC
num_set 1024
NUM_WAY 4
MSHR_SIZE 64
offset bits 6
name cpu1_L1D
num_set 128
NUM_WAY 12
MSHR_SIZE 64
offset bits 6
name cpu1_L1D
num_set 128
NUM_WAY 12
MSHR_SIZE 64
offset bits 6
name LLC
num_set 1024
NUM_WAY 4
MSHR_SIZE 64
offset bits 6
name cpu1_L1D
num_set 128
NUM_WAY 12
MSHR_SIZE 64
offset bits 6
name LLC
num_set 1024
NUM_WAY 4
MSHR_SIZE 64
offset bits 6
name cpu1_L1D
num_set 128
NUM_WAY 12
MSHR_SIZE 64
offset bits 6
name cpu1_L1D
num_set 128
NUM_WAY 12
MSHR_SIZE 64
offset bits 6
name cpu1_L1D
num_set 128
NUM_WAY 12
MSHR_SIZE 64
offset bits 6
name cpu1_L1D
num_set 128
NUM_WAY 12
MSHR_SIZE 64
offset bits 6
name cpu1_L1D
num_set 128
NUM_WAY 12
MSHR_SIZE 64
offset bits 6
name cpu1_L1D
num_set 128
NUM_WAY 12
MSHR_SIZE 64
offset bits 6
name LLC
num_set 1024
NUM_WAY 4
MSHR_SIZE 64
offset bits 6
name LLC
num_set 1024
NUM_WAY 4
MSHR_SIZE 64
offset bits 6
name LLC
num_set 1024
NUM_WAY 4
MSHR_SIZE 64
offset bits 6
name cpu1_L1D
num_set 128
NUM_WAY 12
MSHR_SIZE 64
offset bits 6
name cpu1_L1D
num_set 128
NUM_WAY 12
MSHR_SIZE 64
offset bits 6
name cpu1_L1D
num_set 128
NUM_WAY 12
MSHR_SIZE 64
offset bits 6
name cpu1_L1D
num_set 128
NUM_WAY 12
MSHR_SIZE 64
offset bits 6
name cpu1_L1D
num_set 128
NUM_WAY 12
MSHR_SIZE 64
offset bits 6
name LLC
num_set 1024
NUM_WAY 4
MSHR_SIZE 64
offset bits 6
name cpu1_L1D
num_set 128
NUM_WAY 12
MSHR_SIZE 64
offset bits 6
name cpu1_L1D
num_set 128
NUM_WAY 12
MSHR_SIZE 64
offset bits 6
name cpu1_L1D
num_set 128
NUM_WAY 12
MSHR_SIZE 64
offset bits 6
name cpu1_L1D
num_set 128
NUM_WAY 12
MSHR_SIZE 64
offset bits 6
name cpu1_L1D
num_set 128
NUM_WAY 12
MSHR_SIZE 64
offset bits 6
name cpu1_L1D
num_set 128
NUM_WAY 12
MSHR_SIZE 64
offset bits 6
name cpu1_L1D
num_set 128
NUM_WAY 12
MSHR_SIZE 64
offset bits 6
name cpu1_L1D
num_set 128
NUM_WAY 12
MSHR_SIZE 64
offset bits 6
name LLC
num_set 1024
NUM_WAY 4
MSHR_SIZE 64
offset bits 6
name cpu1_L1D
num_set 128
NUM_WAY 12
MSHR_SIZE 64
offset bits 6
name LLC
num_set 1024
NUM_WAY 4
MSHR_SIZE 64
offset bits 6
name LLC
num_set 1024
NUM_WAY 4
MSHR_SIZE 64
offset bits 6
name cpu1_L1D
num_set 128
NUM_WAY 12
MSHR_SIZE 64
offset bits 6
name cpu1_L1D
num_set 128
NUM_WAY 12
MSHR_SIZE 64
offset bits 6
name cpu1_L1D
num_set 128
NUM_WAY 12
MSHR_SIZE 64
offset bits 6
name cpu1_L1D
num_set 128
NUM_WAY 12
MSHR_SIZE 64
offset bits 6
name cpu1_L1D
num_set 128
NUM_WAY 12
MSHR_SIZE 64
offset bits 6
name cpu1_L1D
num_set 128
NUM_WAY 12
MSHR_SIZE 64
offset bits 6
name cpu1_L1D
num_set 128
NUM_WAY 12
MSHR_SIZE 64
offset bits 6
name cpu1_L1D
num_set 128
NUM_WAY 12
MSHR_SIZE 64
offset bits 6
name cpu1_L1D
num_set 128
NUM_WAY 12
MSHR_SIZE 64
offset bits 6
name cpu1_L1D
num_set 128
NUM_WAY 12
MSHR_SIZE 64
offset bits 6
name cpu1_L1D
num_set 128
NUM_WAY 12
MSHR_SIZE 64
offset bits 6
name cpu1_L1D
num_set 128
NUM_WAY 12
MSHR_SIZE 64
offset bits 6
name cpu1_L1D
num_set 128
NUM_WAY 12
MSHR_SIZE 64
offset bits 6
name cpu1_L1D
num_set 128
NUM_WAY 12
MSHR_SIZE 64
offset bits 6
name cpu1_L1D
num_set 128
NUM_WAY 12
MSHR_SIZE 64
offset bits 6
name cpu1_L1D
num_set 128
NUM_WAY 12
MSHR_SIZE 64
offset bits 6
name LLC
num_set 1024
NUM_WAY 4
MSHR_SIZE 64
offset bits 6
name cpu1_L1D
num_set 128
NUM_WAY 12
MSHR_SIZE 64
offset bits 6
name cpu1_L1D
num_set 128
NUM_WAY 12
MSHR_SIZE 64
offset bits 6
name cpu1_L1D
num_set 128
NUM_WAY 12
MSHR_SIZE 64
offset bits 6
name LLC
num_set 1024
NUM_WAY 4
MSHR_SIZE 64
offset bits 6
name cpu1_L1D
num_set 128
NUM_WAY 12
MSHR_SIZE 64
offset bits 6
name cpu1_L1D
num_set 128
NUM_WAY 12
MSHR_SIZE 64
offset bits 6
name cpu1_L1D
num_set 128
NUM_WAY 12
MSHR_SIZE 64
offset bits 6
name cpu1_L1D
num_set 128
NUM_WAY 12
MSHR_SIZE 64
offset bits 6
name cpu1_L1D
num_set 128
NUM_WAY 12
MSHR_SIZE 64
offset bits 6
name LLC
num_set 1024
NUM_WAY 4
MSHR_SIZE 64
offset bits 6
name cpu1_L1D
num_set 128
NUM_WAY 12
MSHR_SIZE 64
offset bits 6
name cpu1_L1D
num_set 128
NUM_WAY 12
MSHR_SIZE 64
offset bits 6
name cpu1_L1D
num_set 128
NUM_WAY 12
MSHR_SIZE 64
offset bits 6
name cpu1_L1D
num_set 128
NUM_WAY 12
MSHR_SIZE 64
offset bits 6
name cpu1_L1D
num_set 128
NUM_WAY 12
MSHR_SIZE 64
offset bits 6
name cpu1_L1D
num_set 128
NUM_WAY 12
MSHR_SIZE 64
offset bits 6
name cpu1_L1D
num_set 128
NUM_WAY 12
MSHR_SIZE 64
offset bits 6
name cpu1_L1D
num_set 128
NUM_WAY 12
MSHR_SIZE 64
offset bits 6
name LLC
num_set 1024
NUM_WAY 4
MSHR_SIZE 64
offset bits 6
name LLC
num_set 1024
NUM_WAY 4
MSHR_SIZE 64
offset bits 6
name cpu1_L1D
num_set 128
NUM_WAY 12
MSHR_SIZE 64
offset bits 6
name cpu1_L1D
num_set 128
NUM_WAY 12
MSHR_SIZE 64
offset bits 6
name cpu1_L1D
num_set 128
NUM_WAY 12
MSHR_SIZE 64
offset bits 6
name cpu1_L1D
num_set 128
NUM_WAY 12
MSHR_SIZE 64
offset bits 6
name cpu1_DTLB
num_set 16
NUM_WAY 4
MSHR_SIZE 8
offset bits 12
name LLC
num_set 1024
NUM_WAY 4
MSHR_SIZE 64
offset bits 6
name cpu1_L1D
num_set 128
NUM_WAY 12
MSHR_SIZE 64
offset bits 6
name cpu1_L1D
num_set 128
NUM_WAY 12
MSHR_SIZE 64
offset bits 6
name cpu1_L1D
num_set 128
NUM_WAY 12
MSHR_SIZE 64
offset bits 6
name cpu1_L1D
num_set 128
NUM_WAY 12
MSHR_SIZE 64
offset bits 6
name cpu1_L1D
num_set 128
NUM_WAY 12
MSHR_SIZE 64
offset bits 6
name cpu1_L1D
num_set 128
NUM_WAY 12
MSHR_SIZE 64
offset bits 6
name LLC
num_set 1024
NUM_WAY 4
MSHR_SIZE 64
offset bits 6
name LLC
num_set 1024
NUM_WAY 4
MSHR_SIZE 64
offset bits 6
name cpu1_L1D
num_set 128
NUM_WAY 12
MSHR_SIZE 64
offset bits 6
name cpu1_L1D
num_set 128
NUM_WAY 12
MSHR_SIZE 64
offset bits 6
name LLC
num_set 1024
NUM_WAY 4
MSHR_SIZE 64
offset bits 6
name cpu1_L1D
num_set 128
NUM_WAY 12
MSHR_SIZE 64
offset bits 6
name cpu1_L1D
num_set 128
NUM_WAY 12
MSHR_SIZE 64
offset bits 6
name LLC
num_set 1024
NUM_WAY 4
MSHR_SIZE 64
offset bits 6
name LLC
num_set 1024
NUM_WAY 4
MSHR_SIZE 64
offset bits 6
name LLC
num_set 1024
NUM_WAY 4
MSHR_SIZE 64
offset bits 6
name LLC
num_set 1024
NUM_WAY 4
MSHR_SIZE 64
offset bits 6
name LLC
num_set 1024
NUM_WAY 4
MSHR_SIZE 64
offset bits 6
name cpu1_L1D
num_set 128
NUM_WAY 12
MSHR_SIZE 64
offset bits 6
name LLC
num_set 1024
NUM_WAY 4
MSHR_SIZE 64
offset bits 6
name cpu1_L1D
num_set 128
NUM_WAY 12
MSHR_SIZE 64
offset bits 6
name cpu1_L1D
num_set 128
NUM_WAY 12
MSHR_SIZE 64
offset bits 6
name cpu1_L1D
num_set 128
NUM_WAY 12
MSHR_SIZE 64
offset bits 6
name cpu1_L1D
num_set 128
NUM_WAY 12
MSHR_SIZE 64
offset bits 6
name cpu1_L1D
num_set 128
NUM_WAY 12
MSHR_SIZE 64
offset bits 6
name LLC
num_set 1024
NUM_WAY 4
MSHR_SIZE 64
offset bits 6
name LLC
num_set 1024
NUM_WAY 4
MSHR_SIZE 64
offset bits 6
name cpu1_L1D
num_set 128
NUM_WAY 12
MSHR_SIZE 64
offset bits 6
name cpu1_L1D
num_set 128
NUM_WAY 12
MSHR_SIZE 64
offset bits 6
name LLC
num_set 1024
NUM_WAY 4
MSHR_SIZE 64
offset bits 6
name cpu1_L1D
num_set 128
NUM_WAY 12
MSHR_SIZE 64
offset bits 6
name cpu1_L1D
num_set 128
NUM_WAY 12
MSHR_SIZE 64
offset bits 6
name LLC
num_set 1024
NUM_WAY 4
MSHR_SIZE 64
offset bits 6
name cpu1_L1D
num_set 128
NUM_WAY 12
MSHR_SIZE 64
offset bits 6
name LLC
num_set 1024
NUM_WAY 4
MSHR_SIZE 64
offset bits 6
name cpu1_L1D
num_set 128
NUM_WAY 12
MSHR_SIZE 64
offset bits 6
name LLC
num_set 1024
NUM_WAY 4
MSHR_SIZE 64
offset bits 6
name cpu1_L1D
num_set 128
NUM_WAY 12
MSHR_SIZE 64
offset bits 6
name cpu1_L1D
num_set 128
NUM_WAY 12
MSHR_SIZE 64
offset bits 6
name cpu1_L1D
num_set 128
NUM_WAY 12
MSHR_SIZE 64
offset bits 6
name cpu1_L1D
num_set 128
NUM_WAY 12
MSHR_SIZE 64
offset bits 6
name cpu1_L1D
num_set 128
NUM_WAY 12
MSHR_SIZE 64
offset bits 6
name LLC
num_set 1024
NUM_WAY 4
MSHR_SIZE 64
offset bits 6
name cpu1_L1D
num_set 128
NUM_WAY 12
MSHR_SIZE 64
offset bits 6
name LLC
num_set 1024
NUM_WAY 4
MSHR_SIZE 64
offset bits 6
name LLC
num_set 1024
NUM_WAY 4
MSHR_SIZE 64
offset bits 6
name cpu1_L1D
num_set 128
NUM_WAY 12
MSHR_SIZE 64
offset bits 6
name cpu1_L1D
num_set 128
NUM_WAY 12
MSHR_SIZE 64
offset bits 6
name cpu1_L1D
num_set 128
NUM_WAY 12
MSHR_SIZE 64
offset bits 6
name cpu1_L1D
num_set 128
NUM_WAY 12
MSHR_SIZE 64
offset bits 6
name cpu1_L1D
num_set 128
NUM_WAY 12
MSHR_SIZE 64
offset bits 6
name cpu1_L1D
num_set 128
NUM_WAY 12
MSHR_SIZE 64
offset bits 6
name LLC
num_set 1024
NUM_WAY 4
MSHR_SIZE 64
offset bits 6
name cpu1_L1D
num_set 128
NUM_WAY 12
MSHR_SIZE 64
offset bits 6
name LLC
num_set 1024
NUM_WAY 4
MSHR_SIZE 64
offset bits 6
name cpu1_L1D
num_set 128
NUM_WAY 12
MSHR_SIZE 64
offset bits 6
name cpu1_L1D
num_set 128
NUM_WAY 12
MSHR_SIZE 64
offset bits 6
name cpu1_L1D
num_set 128
NUM_WAY 12
MSHR_SIZE 64
offset bits 6
name cpu1_L1D
num_set 128
NUM_WAY 12
MSHR_SIZE 64
offset bits 6
name cpu1_L1D
num_set 128
NUM_WAY 12
MSHR_SIZE 64
offset bits 6
name cpu1_L1D
num_set 128
NUM_WAY 12
MSHR_SIZE 64
offset bits 6
name LLC
num_set 1024
NUM_WAY 4
MSHR_SIZE 64
offset bits 6
name cpu1_L1D
num_set 128
NUM_WAY 12
MSHR_SIZE 64
offset bits 6
name LLC
num_set 1024
NUM_WAY 4
MSHR_SIZE 64
offset bits 6
name cpu1_DTLB
num_set 16
NUM_WAY 4
MSHR_SIZE 8
offset bits 12
name cpu1_L1D
num_set 128
NUM_WAY 12
MSHR_SIZE 64
offset bits 6
name LLC
num_set 1024
NUM_WAY 4
MSHR_SIZE 64
offset bits 6
name cpu1_L1D
num_set 128
NUM_WAY 12
MSHR_SIZE 64
offset bits 6
name cpu1_L1D
num_set 128
NUM_WAY 12
MSHR_SIZE 64
offset bits 6
name cpu1_L1D
num_set 128
NUM_WAY 12
MSHR_SIZE 64
offset bits 6
name cpu1_L1D
num_set 128
NUM_WAY 12
MSHR_SIZE 64
offset bits 6
name cpu1_L1D
num_set 128
NUM_WAY 12
MSHR_SIZE 64
offset bits 6
name LLC
num_set 1024
NUM_WAY 4
MSHR_SIZE 64
offset bits 6
name cpu1_L1D
num_set 128
NUM_WAY 12
MSHR_SIZE 64
offset bits 6
name LLC
num_set 1024
NUM_WAY 4
MSHR_SIZE 64
offset bits 6
name cpu1_L1D
num_set 128
NUM_WAY 12
MSHR_SIZE 64
offset bits 6
name cpu1_L1D
num_set 128
NUM_WAY 12
MSHR_SIZE 64
offset bits 6
name cpu1_L1D
num_set 128
NUM_WAY 12
MSHR_SIZE 64
offset bits 6
name LLC
num_set 1024
NUM_WAY 4
MSHR_SIZE 64
offset bits 6
name cpu1_L1D
num_set 128
NUM_WAY 12
MSHR_SIZE 64
offset bits 6
name cpu1_L1D
num_set 128
NUM_WAY 12
MSHR_SIZE 64
offset bits 6
name cpu1_L1D
num_set 128
NUM_WAY 12
MSHR_SIZE 64
offset bits 6
name LLC
num_set 1024
NUM_WAY 4
MSHR_SIZE 64
offset bits 6
name cpu1_L1D
num_set 128
NUM_WAY 12
MSHR_SIZE 64
offset bits 6
name cpu1_L1D
num_set 128
NUM_WAY 12
MSHR_SIZE 64
offset bits 6
name LLC
num_set 1024
NUM_WAY 4
MSHR_SIZE 64
offset bits 6
name cpu1_L1D
num_set 128
NUM_WAY 12
MSHR_SIZE 64
offset bits 6
name cpu1_L1D
num_set 128
NUM_WAY 12
MSHR_SIZE 64
offset bits 6
name cpu1_L1D
num_set 128
NUM_WAY 12
MSHR_SIZE 64
offset bits 6
name LLC
num_set 1024
NUM_WAY 4
MSHR_SIZE 64
offset bits 6
name cpu1_L1D
num_set 128
NUM_WAY 12
MSHR_SIZE 64
offset bits 6
name LLC
num_set 1024
NUM_WAY 4
MSHR_SIZE 64
offset bits 6
name cpu1_L1D
num_set 128
NUM_WAY 12
MSHR_SIZE 64
offset bits 6
name LLC
num_set 1024
NUM_WAY 4
MSHR_SIZE 64
offset bits 6
name cpu1_L1D
num_set 128
NUM_WAY 12
MSHR_SIZE 64
offset bits 6
name LLC
num_set 1024
NUM_WAY 4
MSHR_SIZE 64
offset bits 6
name LLC
num_set 1024
NUM_WAY 4
MSHR_SIZE 64
offset bits 6
name cpu1_L1D
num_set 128
NUM_WAY 12
MSHR_SIZE 64
offset bits 6
name LLC
num_set 1024
NUM_WAY 4
MSHR_SIZE 64
[...]
cpu2_L1I WRITE        ACCESS:          0 HIT:          0 MISS:          0
cpu2_L1I TRANSLATION  ACCESS:          0 HIT:          0 MISS:          0
cpu2_L1I PREFETCH REQUESTED:          0 ISSUED:          0 USEFUL:          0 USELESS:          0
cpu2_L1I AVERAGE MISS LATENCY: 1557 cycles
cpu2_L1I TOTAL        ACCESS:          0 HIT:          0 MISS:          0
cpu2_L1I LOAD         ACCESS:          0 HIT:          0 MISS:          0
cpu2_L1I RFO          ACCESS:          0 HIT:          0 MISS:          0
cpu2_L1I PREFETCH     ACCESS:          0 HIT:          0 MISS:          0
cpu2_L1I WRITE        ACCESS:          0 HIT:          0 MISS:          0
cpu2_L1I TRANSLATION  ACCESS:          0 HIT:          0 MISS:          0
cpu2_L1I PREFETCH REQUESTED:          0 ISSUED:          0 USEFUL:          0 USELESS:          0
cpu2_L1I AVERAGE MISS LATENCY: 1557 cycles
cpu2_L2C TOTAL        ACCESS:          0 HIT:          0 MISS:          0
cpu2_L2C LOAD         ACCESS:          0 HIT:          0 MISS:          0
cpu2_L2C RFO          ACCESS:          0 HIT:          0 MISS:          0
cpu2_L2C PREFETCH     ACCESS:          0 HIT:          0 MISS:          0
cpu2_L2C WRITE        ACCESS:          0 HIT:          0 MISS:          0
cpu2_L2C TRANSLATION  ACCESS:          0 HIT:          0 MISS:          0
cpu2_L2C PREFETCH REQUESTED:          0 ISSUED:          0 USEFUL:          0 USELESS:          0
cpu2_L2C AVERAGE MISS LATENCY: 4428 cycles
cpu2_L2C TOTAL        ACCESS:          0 HIT:          0 MISS:          0
cpu2_L2C LOAD         ACCESS:          0 HIT:          0 MISS:          0
cpu2_L2C RFO          ACCESS:          0 HIT:          0 MISS:          0
cpu2_L2C PREFETCH     ACCESS:          0 HIT:          0 MISS:          0
cpu2_L2C WRITE        ACCESS:          0 HIT:          0 MISS:          0
cpu2_L2C TRANSLATION  ACCESS:          0 HIT:          0 MISS:          0
cpu2_L2C PREFETCH REQUESTED:          0 ISSUED:          0 USEFUL:          0 USELESS:          0
cpu2_L2C AVERAGE MISS LATENCY: 4428 cycles
cpu2_L2C TOTAL        ACCESS:       5645 HIT:       2809 MISS:       2836
cpu2_L2C LOAD         ACCESS:       4352 HIT:       2173 MISS:       2179
cpu2_L2C RFO          ACCESS:        541 HIT:        265 MISS:        276
cpu2_L2C PREFETCH     ACCESS:          0 HIT:          0 MISS:          0
cpu2_L2C WRITE        ACCESS:          0 HIT:          0 MISS:          0
cpu2_L2C TRANSLATION  ACCESS:        752 HIT:        371 MISS:        381
cpu2_L2C PREFETCH REQUESTED:          0 ISSUED:          0 USEFUL:          0 USELESS:          0
cpu2_L2C AVERAGE MISS LATENCY: 4428 cycles
cpu2_L2C TOTAL        ACCESS:          0 HIT:          0 MISS:          0
cpu2_L2C LOAD         ACCESS:          0 HIT:          0 MISS:          0
cpu2_L2C RFO          ACCESS:          0 HIT:          0 MISS:          0
cpu2_L2C PREFETCH     ACCESS:          0 HIT:          0 MISS:          0
cpu2_L2C WRITE        ACCESS:          0 HIT:          0 MISS:          0
cpu2_L2C TRANSLATION  ACCESS:          0 HIT:          0 MISS:          0
cpu2_L2C PREFETCH REQUESTED:          0 ISSUED:          0 USEFUL:          0 USELESS:          0
cpu2_L2C AVERAGE MISS LATENCY: 4428 cycles
cpu2_STLB TOTAL        ACCESS:          0 HIT:          0 MISS:          0
cpu2_STLB LOAD         ACCESS:          0 HIT:          0 MISS:          0
cpu2_STLB RFO          ACCESS:          0 HIT:          0 MISS:          0
cpu2_STLB PREFETCH     ACCESS:          0 HIT:          0 MISS:          0
cpu2_STLB WRITE        ACCESS:          0 HIT:          0 MISS:          0
cpu2_STLB TRANSLATION  ACCESS:          0 HIT:          0 MISS:          0
cpu2_STLB PREFETCH REQUESTED:          0 ISSUED:          0 USEFUL:          0 USELESS:          0
cpu2_STLB AVERAGE MISS LATENCY: 1225 cycles
cpu2_STLB TOTAL        ACCESS:          0 HIT:          0 MISS:          0
cpu2_STLB LOAD         ACCESS:          0 HIT:          0 MISS:          0
cpu2_STLB RFO          ACCESS:          0 HIT:          0 MISS:          0
cpu2_STLB PREFETCH     ACCESS:          0 HIT:          0 MISS:          0
cpu2_STLB WRITE        ACCESS:          0 HIT:          0 MISS:          0
cpu2_STLB TRANSLATION  ACCESS:          0 HIT:          0 MISS:          0
cpu2_STLB PREFETCH REQUESTED:          0 ISSUED:          0 USEFUL:          0 USELESS:          0
cpu2_STLB AVERAGE MISS LATENCY: 1225 cycles
cpu2_STLB TOTAL        ACCESS:       3027 HIT:       1512 MISS:       1515
cpu2_STLB LOAD         ACCESS:       3027 HIT:       1512 MISS:       1515
cpu2_STLB RFO          ACCESS:          0 HIT:          0 MISS:          0
cpu2_STLB PREFETCH     ACCESS:          0 HIT:          0 MISS:          0
cpu2_STLB WRITE        ACCESS:          0 HIT:          0 MISS:          0
cpu2_STLB TRANSLATION  ACCESS:          0 HIT:          0 MISS:          0
cpu2_STLB PREFETCH REQUESTED:          0 ISSUED:          0 USEFUL:          0 USELESS:          0
cpu2_STLB AVERAGE MISS LATENCY: 1225 cycles
cpu2_STLB TOTAL        ACCESS:          0 HIT:          0 MISS:          0
cpu2_STLB LOAD         ACCESS:          0 HIT:          0 MISS:          0
cpu2_STLB RFO          ACCESS:          0 HIT:          0 MISS:          0
cpu2_STLB PREFETCH     ACCESS:          0 HIT:          0 MISS:          0
cpu2_STLB WRITE        ACCESS:          0 HIT:          0 MISS:          0
cpu2_STLB TRANSLATION  ACCESS:          0 HIT:          0 MISS:          0
cpu2_STLB PREFETCH REQUESTED:          0 ISSUED:          0 USEFUL:          0 USELESS:          0
cpu2_STLB AVERAGE MISS LATENCY: 1225 cycles
cpu3_DTLB TOTAL        ACCESS:          0 HIT:          0 MISS:          0
cpu3_DTLB LOAD         ACCESS:          0 HIT:          0 MISS:          0
cpu3_DTLB RFO          ACCESS:          0 HIT:          0 MISS:          0
cpu3_DTLB PREFETCH     ACCESS:          0 HIT:          0 MISS:          0
cpu3_DTLB WRITE        ACCESS:          0 HIT:          0 MISS:          0
cpu3_DTLB TRANSLATION  ACCESS:          0 HIT:          0 MISS:          0
cpu3_DTLB PREFETCH REQUESTED:          0 ISSUED:          0 USEFUL:          0 USELESS:          0
cpu3_DTLB AVERAGE MISS LATENCY: 345.4 cycles
cpu3_DTLB TOTAL        ACCESS:          0 HIT:          0 MISS:          0
cpu3_DTLB LOAD         ACCESS:          0 HIT:          0 MISS:          0
cpu3_DTLB RFO          ACCESS:          0 HIT:          0 MISS:          0
cpu3_DTLB PREFETCH     ACCESS:          0 HIT:          0 MISS:          0
cpu3_DTLB WRITE        ACCESS:          0 HIT:          0 MISS:          0
cpu3_DTLB TRANSLATION  ACCESS:          0 HIT:          0 MISS:          0
cpu3_DTLB PREFETCH REQUESTED:          0 ISSUED:          0 USEFUL:          0 USELESS:          0
cpu3_DTLB AVERAGE MISS LATENCY: 345.4 cycles
cpu3_DTLB TOTAL        ACCESS:          0 HIT:          0 MISS:          0
cpu3_DTLB LOAD         ACCESS:          0 HIT:          0 MISS:          0
cpu3_DTLB RFO          ACCESS:          0 HIT:          0 MISS:          0
cpu3_DTLB PREFETCH     ACCESS:          0 HIT:          0 MISS:          0
cpu3_DTLB WRITE        ACCESS:          0 HIT:          0 MISS:          0
cpu3_DTLB TRANSLATION  ACCESS:          0 HIT:          0 MISS:          0
cpu3_DTLB PREFETCH REQUESTED:          0 ISSUED:          0 USEFUL:          0 USELESS:          0
cpu3_DTLB AVERAGE MISS LATENCY: 345.4 cycles
cpu3_DTLB TOTAL        ACCESS:       7204 HIT:       2374 MISS:       4830
cpu3_DTLB LOAD         ACCESS:       7204 HIT:       2374 MISS:       4830
cpu3_DTLB RFO          ACCESS:          0 HIT:          0 MISS:          0
cpu3_DTLB PREFETCH     ACCESS:          0 HIT:          0 MISS:          0
cpu3_DTLB WRITE        ACCESS:          0 HIT:          0 MISS:          0
cpu3_DTLB TRANSLATION  ACCESS:          0 HIT:          0 MISS:          0
cpu3_DTLB PREFETCH REQUESTED:          0 ISSUED:          0 USEFUL:          0 USELESS:          0
cpu3_DTLB AVERAGE MISS LATENCY: 345.4 cycles
cpu3_ITLB TOTAL        ACCESS:          0 HIT:          0 MISS:          0
cpu3_ITLB LOAD         ACCESS:          0 HIT:          0 MISS:          0
cpu3_ITLB RFO          ACCESS:          0 HIT:          0 MISS:          0
cpu3_ITLB PREFETCH     ACCESS:          0 HIT:          0 MISS:          0
cpu3_ITLB WRITE        ACCESS:          0 HIT:          0 MISS:          0
cpu3_ITLB TRANSLATION  ACCESS:          0 HIT:          0 MISS:          0
cpu3_ITLB PREFETCH REQUESTED:          0 ISSUED:          0 USEFUL:          0 USELESS:          0
cpu3_ITLB AVERAGE MISS LATENCY: 383.2 cycles
cpu3_ITLB TOTAL        ACCESS:          0 HIT:          0 MISS:          0
cpu3_ITLB LOAD         ACCESS:          0 HIT:          0 MISS:          0
cpu3_ITLB RFO          ACCESS:          0 HIT:          0 MISS:          0
cpu3_ITLB PREFETCH     ACCESS:          0 HIT:          0 MISS:          0
cpu3_ITLB WRITE        ACCESS:          0 HIT:          0 MISS:          0
cpu3_ITLB TRANSLATION  ACCESS:          0 HIT:          0 MISS:          0
cpu3_ITLB PREFETCH REQUESTED:          0 ISSUED:          0 USEFUL:          0 USELESS:          0
cpu3_ITLB AVERAGE MISS LATENCY: 383.2 cycles
cpu3_ITLB TOTAL        ACCESS:          0 HIT:          0 MISS:          0
cpu3_ITLB LOAD         ACCESS:          0 HIT:          0 MISS:          0
cpu3_ITLB RFO          ACCESS:          0 HIT:          0 MISS:          0
cpu3_ITLB PREFETCH     ACCESS:          0 HIT:          0 MISS:          0
cpu3_ITLB WRITE        ACCESS:          0 HIT:          0 MISS:          0
cpu3_ITLB TRANSLATION  ACCESS:          0 HIT:          0 MISS:          0
cpu3_ITLB PREFETCH REQUESTED:          0 ISSUED:          0 USEFUL:          0 USELESS:          0
cpu3_ITLB AVERAGE MISS LATENCY: 383.2 cycles
cpu3_ITLB TOTAL        ACCESS:        679 HIT:        122 MISS:        557
cpu3_ITLB LOAD         ACCESS:        679 HIT:        122 MISS:        557
cpu3_ITLB RFO          ACCESS:          0 HIT:          0 MISS:          0
cpu3_ITLB PREFETCH     ACCESS:          0 HIT:          0 MISS:          0
cpu3_ITLB WRITE        ACCESS:          0 HIT:          0 MISS:          0
cpu3_ITLB TRANSLATION  ACCESS:          0 HIT:          0 MISS:          0
cpu3_ITLB PREFETCH REQUESTED:          0 ISSUED:          0 USEFUL:          0 USELESS:          0
cpu3_ITLB AVERAGE MISS LATENCY: 383.2 cycles
cpu3_L1D TOTAL        ACCESS:          0 HIT:          0 MISS:          0
cpu3_L1D LOAD         ACCESS:          0 HIT:          0 MISS:          0
cpu3_L1D RFO          ACCESS:          0 HIT:          0 MISS:          0
cpu3_L1D PREFETCH     ACCESS:          0 HIT:          0 MISS:          0
cpu3_L1D WRITE        ACCESS:          0 HIT:          0 MISS:          0
cpu3_L1D TRANSLATION  ACCESS:          0 HIT:          0 MISS:          0
cpu3_L1D PREFETCH REQUESTED:          0 ISSUED:          0 USEFUL:          0 USELESS:          0
cpu3_L1D AVERAGE MISS LATENCY: 1591 cycles
cpu3_L1D TOTAL        ACCESS:          0 HIT:          0 MISS:          0
cpu3_L1D LOAD         ACCESS:          0 HIT:          0 MISS:          0
cpu3_L1D RFO          ACCESS:          0 HIT:          0 MISS:          0
cpu3_L1D PREFETCH     ACCESS:          0 HIT:          0 MISS:          0
cpu3_L1D WRITE        ACCESS:          0 HIT:          0 MISS:          0
cpu3_L1D TRANSLATION  ACCESS:          0 HIT:          0 MISS:          0
cpu3_L1D PREFETCH REQUESTED:          0 ISSUED:          0 USEFUL:          0 USELESS:          0
cpu3_L1D AVERAGE MISS LATENCY: 1591 cycles
cpu3_L1D TOTAL        ACCESS:          0 HIT:          0 MISS:          0
cpu3_L1D LOAD         ACCESS:          0 HIT:          0 MISS:          0
cpu3_L1D RFO          ACCESS:          0 HIT:          0 MISS:          0
cpu3_L1D PREFETCH     ACCESS:          0 HIT:          0 MISS:          0
cpu3_L1D WRITE        ACCESS:          0 HIT:          0 MISS:          0
cpu3_L1D TRANSLATION  ACCESS:          0 HIT:          0 MISS:          0
cpu3_L1D PREFETCH REQUESTED:          0 ISSUED:          0 USEFUL:          0 USELESS:          0
cpu3_L1D AVERAGE MISS LATENCY: 1591 cycles
cpu3_L1D TOTAL        ACCESS:      13304 HIT:       3322 MISS:       9982
cpu3_L1D LOAD         ACCESS:       5735 HIT:       1833 MISS:       3902
cpu3_L1D RFO          ACCESS:          0 HIT:          0 MISS:          0
cpu3_L1D PREFETCH     ACCESS:          0 HIT:          0 MISS:          0
cpu3_L1D WRITE        ACCESS:       6319 HIT:        895 MISS:       5424
cpu3_L1D TRANSLATION  ACCESS:       1250 HIT:        594 MISS:        656
cpu3_L1D PREFETCH REQUESTED:          0 ISSUED:          0 USEFUL:          0 USELESS:          0
cpu3_L1D AVERAGE MISS LATENCY: 1591 cycles
cpu3_L1I TOTAL        ACCESS:          0 HIT:          0 MISS:          0
cpu3_L1I LOAD         ACCESS:          0 HIT:          0 MISS:          0
cpu3_L1I RFO          ACCESS:          0 HIT:          0 MISS:          0
cpu3_L1I PREFETCH     ACCESS:          0 HIT:          0 MISS:          0
cpu3_L1I WRITE        ACCESS:          0 HIT:          0 MISS:          0
cpu3_L1I TRANSLATION  ACCESS:          0 HIT:          0 MISS:          0
cpu3_L1I PREFETCH REQUESTED:          0 ISSUED:          0 USEFUL:          0 USELESS:          0
cpu3_L1I AVERAGE MISS LATENCY: 1229 cycles
cpu3_L1I TOTAL        ACCESS:          0 HIT:          0 MISS:          0
cpu3_L1I LOAD         ACCESS:          0 HIT:          0 MISS:          0
cpu3_L1I RFO          ACCESS:          0 HIT:          0 MISS:          0
cpu3_L1I PREFETCH     ACCESS:          0 HIT:          0 MISS:          0
cpu3_L1I WRITE        ACCESS:          0 HIT:          0 MISS:          0
cpu3_L1I TRANSLATION  ACCESS:          0 HIT:          0 MISS:          0
cpu3_L1I PREFETCH REQUESTED:          0 ISSUED:          0 USEFUL:          0 USELESS:          0
cpu3_L1I AVERAGE MISS LATENCY: 1229 cycles
cpu3_L1I TOTAL        ACCESS:          0 HIT:          0 MISS:          0
cpu3_L1I LOAD         ACCESS:          0 HIT:          0 MISS:          0
cpu3_L1I RFO          ACCESS:          0 HIT:          0 MISS:          0
cpu3_L1I PREFETCH     ACCESS:          0 HIT:          0 MISS:          0
cpu3_L1I WRITE        ACCESS:          0 HIT:          0 MISS:          0
cpu3_L1I TRANSLATION  ACCESS:          0 HIT:          0 MISS:          0
cpu3_L1I PREFETCH REQUESTED:          0 ISSUED:          0 USEFUL:          0 USELESS:          0
cpu3_L1I AVERAGE MISS LATENCY: 1229 cycles
cpu3_L1I TOTAL        ACCESS:        899 HIT:        155 MISS:        744
cpu3_L1I LOAD         ACCESS:        899 HIT:        155 MISS:        744
cpu3_L1I RFO          ACCESS:          0 HIT:          0 MISS:          0
cpu3_L1I PREFETCH     ACCESS:          0 HIT:          0 MISS:          0
cpu3_L1I WRITE        ACCESS:          0 HIT:          0 MISS:          0
cpu3_L1I TRANSLATION  ACCESS:          0 HIT:          0 MISS:          0
cpu3_L1I PREFETCH REQUESTED:          0 ISSUED:          0 USEFUL:          0 USELESS:          0
cpu3_L1I AVERAGE MISS LATENCY: 1229 cycles
cpu3_L2C TOTAL        ACCESS:          0 HIT:          0 MISS:          0
cpu3_L2C LOAD         ACCESS:          0 HIT:          0 MISS:          0
cpu3_L2C RFO          ACCESS:          0 HIT:          0 MISS:          0
cpu3_L2C PREFETCH     ACCESS:          0 HIT:          0 MISS:          0
cpu3_L2C WRITE        ACCESS:          0 HIT:          0 MISS:          0
cpu3_L2C TRANSLATION  ACCESS:          0 HIT:          0 MISS:          0
cpu3_L2C PREFETCH REQUESTED:          0 ISSUED:          0 USEFUL:          0 USELESS:          0
cpu3_L2C AVERAGE MISS LATENCY: 4410 cycles
cpu3_L2C TOTAL        ACCESS:          0 HIT:          0 MISS:          0
cpu3_L2C LOAD         ACCESS:          0 HIT:          0 MISS:          0
cpu3_L2C RFO          ACCESS:          0 HIT:          0 MISS:          0
cpu3_L2C PREFETCH     ACCESS:          0 HIT:          0 MISS:          0
cpu3_L2C WRITE        ACCESS:          0 HIT:          0 MISS:          0
cpu3_L2C TRANSLATION  ACCESS:          0 HIT:          0 MISS:          0
cpu3_L2C PREFETCH REQUESTED:          0 ISSUED:          0 USEFUL:          0 USELESS:          0
cpu3_L2C AVERAGE MISS LATENCY: 4410 cycles
cpu3_L2C TOTAL        ACCESS:          0 HIT:          0 MISS:          0
cpu3_L2C LOAD         ACCESS:          0 HIT:          0 MISS:          0
cpu3_L2C RFO          ACCESS:          0 HIT:          0 MISS:          0
cpu3_L2C PREFETCH     ACCESS:          0 HIT:          0 MISS:          0
cpu3_L2C WRITE        ACCESS:          0 HIT:          0 MISS:          0
cpu3_L2C TRANSLATION  ACCESS:          0 HIT:          0 MISS:          0
cpu3_L2C PREFETCH REQUESTED:          0 ISSUED:          0 USEFUL:          0 USELESS:          0
cpu3_L2C AVERAGE MISS LATENCY: 4410 cycles
cpu3_L2C TOTAL        ACCESS:       3749 HIT:       1740 MISS:       2009
cpu3_L2C LOAD         ACCESS:       2110 HIT:       1039 MISS:       1071
cpu3_L2C RFO          ACCESS:        989 HIT:        416 MISS:        573
cpu3_L2C PREFETCH     ACCESS:          0 HIT:          0 MISS:          0
cpu3_L2C WRITE        ACCESS:          0 HIT:          0 MISS:          0
cpu3_L2C TRANSLATION  ACCESS:        650 HIT:        285 MISS:        365
cpu3_L2C PREFETCH REQUESTED:          0 ISSUED:          0 USEFUL:          0 USELESS:          0
cpu3_L2C AVERAGE MISS LATENCY: 4410 cycles
cpu3_STLB TOTAL        ACCESS:          0 HIT:          0 MISS:          0
cpu3_STLB LOAD         ACCESS:          0 HIT:          0 MISS:          0
cpu3_STLB RFO          ACCESS:          0 HIT:          0 MISS:          0
cpu3_STLB PREFETCH     ACCESS:          0 HIT:          0 MISS:          0
cpu3_STLB WRITE        ACCESS:          0 HIT:          0 MISS:          0
cpu3_STLB TRANSLATION  ACCESS:          0 HIT:          0 MISS:          0
cpu3_STLB PREFETCH REQUESTED:          0 ISSUED:          0 USEFUL:          0 USELESS:          0
cpu3_STLB AVERAGE MISS LATENCY: 1237 cycles
cpu3_STLB TOTAL        ACCESS:          0 HIT:          0 MISS:          0
cpu3_STLB LOAD         ACCESS:          0 HIT:          0 MISS:          0
cpu3_STLB RFO          ACCESS:          0 HIT:          0 MISS:          0
cpu3_STLB PREFETCH     ACCESS:          0 HIT:          0 MISS:          0
cpu3_STLB WRITE        ACCESS:          0 HIT:          0 MISS:          0
cpu3_STLB TRANSLATION  ACCESS:          0 HIT:          0 MISS:          0
cpu3_STLB PREFETCH REQUESTED:          0 ISSUED:          0 USEFUL:          0 USELESS:          0
cpu3_STLB AVERAGE MISS LATENCY: 1237 cycles
cpu3_STLB TOTAL        ACCESS:          0 HIT:          0 MISS:          0
cpu3_STLB LOAD         ACCESS:          0 HIT:          0 MISS:          0
cpu3_STLB RFO          ACCESS:          0 HIT:          0 MISS:          0
cpu3_STLB PREFETCH     ACCESS:          0 HIT:          0 MISS:          0
cpu3_STLB WRITE        ACCESS:          0 HIT:          0 MISS:          0
cpu3_STLB TRANSLATION  ACCESS:          0 HIT:          0 MISS:          0
cpu3_STLB PREFETCH REQUESTED:          0 ISSUED:          0 USEFUL:          0 USELESS:          0
cpu3_STLB AVERAGE MISS LATENCY: 1237 cycles
cpu3_STLB TOTAL        ACCESS:       2493 HIT:       1246 MISS:       1247
cpu3_STLB LOAD         ACCESS:       2493 HIT:       1246 MISS:       1247
cpu3_STLB RFO          ACCESS:          0 HIT:          0 MISS:          0
cpu3_STLB PREFETCH     ACCESS:          0 HIT:          0 MISS:          0
cpu3_STLB WRITE        ACCESS:          0 HIT:          0 MISS:          0
cpu3_STLB TRANSLATION  ACCESS:          0 HIT:          0 MISS:          0
cpu3_STLB PREFETCH REQUESTED:          0 ISSUED:          0 USEFUL:          0 USELESS:          0
cpu3_STLB AVERAGE MISS LATENCY: 1237 cycles

DRAM Statistics

Channel 0 RQ ROW_BUFFER_HIT:       3232
  ROW_BUFFER_MISS:      20476
 AVG DBUS CONGESTED CYCLE: 3.977
WQ ROW_BUFFER_HIT: Channel 0 
  ROW_BUFFER_MISS:          0
  FULL:          0
