WARNING: physical memory size is smaller than virtual memory size.

*** ChampSim Multicore Out-of-Order Simulator ***
Warmup Instructions: 2000000
Simulation Instructions: 5000000
Number of CPUs: 4
Page size: 4096

Off-chip DRAM Size: 4 GiB Channels: 1 Width: 64-bit Data Race: 3200 MT/s
make_invincible()
make_invincible()
make_invincible()
make_invincible()
make_invincible()
Warmup finished CPU 1 instructions: 2000003 cycles: 500103 cumulative IPC: 3.999 (Simulation time: 00 hr 00 min 25 sec)
Warmup finished CPU 2 instructions: 2000003 cycles: 501724 cumulative IPC: 3.986 (Simulation time: 00 hr 00 min 25 sec)
Warmup finished CPU 0 instructions: 2000000 cycles: 608095 cumulative IPC: 3.289 (Simulation time: 00 hr 00 min 30 sec)
make_invincible()
make_invincible()
make_invincible()
make_invincible()
free_invincible()
random_free_invincible()
make_invincible()
make_invincible()
make_invincible()
make_invincible()
make_invincible()
Heartbeat CPU 1 instructions: 10000003 cycles: 2500102 heartbeat IPC: 4 cumulative IPC: 4 (Simulation time: 00 hr 02 min 07 sec)
Heartbeat CPU 2 instructions: 10000001 cycles: 2507706 heartbeat IPC: 3.988 cumulative IPC: 3.988 (Simulation time: 00 hr 02 min 08 sec)
make_invincible()
Heartbeat CPU 0 instructions: 10000000 cycles: 3066159 heartbeat IPC: 3.261 cumulative IPC: 3.261 (Simulation time: 00 hr 02 min 37 sec)
make_invincible()
make_invincible()
make_invincible()
make_invincible()
make_invincible()
make_invincible()
make_invincible()
make_invincible()
make_invincible()
make_invincible()
make_invincible()
make_invincible()
make_invincible()
make_invincible()
make_invincible()
make_invincible()
Heartbeat CPU 1 instructions: 20000003 cycles: 5000102 heartbeat IPC: 4 cumulative IPC: 4 (Simulation time: 00 hr 04 min 14 sec)
Heartbeat CPU 2 instructions: 20000002 cycles: 5012237 heartbeat IPC: 3.993 cumulative IPC: 3.99 (Simulation time: 00 hr 04 min 15 sec)
make_invincible()
make_invincible()
make_invincible()
make_invincible()
make_invincible()
make_invincible()
make_invincible()
make_invincible()
make_invincible()
make_invincible()
make_invincible()
make_invincible()
make_invincible()
make_invincible()
make_invincible()
make_invincible()
make_invincible()
make_invincible()
make_invincible()
make_invincible()
make_invincible()
make_invincible()
make_invincible()
make_invincible()
make_invincible()
make_invincible()
make_invincible()
make_invincible()
make_invincible()
make_invincible()
make_invincible()
make_invincible()
make_invincible()
make_invincible()
make_invincible()
make_invincible()
make_invincible()
make_invincible()
make_invincible()
make_invincible()
make_invincible()
make_invincible()
make_invincible()
make_invincible()
make_invincible()
make_invincible()
make_invincible()
Heartbeat CPU 0 instructions: 20000000 cycles: 6209766 heartbeat IPC: 3.181 cumulative IPC: 3.221 (Simulation time: 00 hr 05 min 15 sec)
Warmup finished CPU 3 instructions: 2000002 cycles: 6229343 cumulative IPC: 0.3211 (Simulation time: 00 hr 05 min 16 sec)
Warmup complete CPU 0 instructions: 20062438 cycles: 6229343 cumulative IPC: 3.221 (Simulation time: 00 hr 05 min 16 sec)
Warmup complete CPU 1 instructions: 24916963 cycles: 6229343 cumulative IPC: 4 (Simulation time: 00 hr 05 min 16 sec)
Warmup complete CPU 2 instructions: 24854650 cycles: 6229343 cumulative IPC: 3.99 (Simulation time: 00 hr 05 min 16 sec)
Warmup complete CPU 3 instructions: 2000002 cycles: 6229343 cumulative IPC: 0.3211 (Simulation time: 00 hr 05 min 16 sec)
make_invincible()
make_invincible()
make_invincible()
make_invincible()
make_invincible()
make_invincible()
make_invincible()
make_invincible()
make_invincible()
make_invincible()
make_invincible()
make_invincible()
make_invincible()
make_invincible()
make_invincible()
make_invincible()
make_invincible()
make_invincible()
make_invincible()
make_invincible()
make_invincible()
make_invincible()
make_invincible()
make_invincible()
make_invincible()
make_invincible()
make_invincible()
make_invincible()
make_invincible()
make_invincible()
make_invincible()
make_invincible()
make_invincible()
make_invincible()
make_invincible()
make_invincible()
make_invincible()
make_invincible()
make_invincible()
make_invincible()
make_invincible()
make_invincible()
make_invincible()
make_invincible()
make_invincible()
make_invincible()
make_invincible()
make_invincible()
make_invincible()
make_invincible()
make_invincible()
make_invincible()
make_invincible()
make_invincible()
make_invincible()
make_invincible()
make_invincible()
make_invincible()
make_invincible()
make_invincible()
make_invincible()
make_invincible()
make_invincible()
make_invincible()
make_invincible()
make_invincible()
make_invincible()
make_invincible()
make_invincible()
make_invincible()
make_invincible()
make_invincible()
make_invincible()
make_invincible()
make_invincible()
make_invincible()
make_invincible()
make_invincible()
make_invincible()
make_invincible()
make_invincible()
make_invincible()
make_invincible()
make_invincible()
make_invincible()
make_invincible()
make_invincible()
make_invincible()
make_invincible()
make_invincible()
make_invincible()
make_invincible()
make_invincible()
make_invincible()
make_invincible()
make_invincible()
make_invincible()
make_invincible()
make_invincible()
make_invincible()
make_invincible()
make_invincible()
make_invincible()
make_invincible()
make_invincible()
make_invincible()
make_invincible()
make_invincible()
make_invincible()
make_invincible()
make_invincible()
make_invincible()
make_invincible()
make_invincible()
make_invincible()
make_invincible()
make_invincible()
make_invincible()
make_invincible()
make_invincible()
make_invincible()
make_invincible()
make_invincible()
make_invincible()
make_invincible()
make_invincible()
make_invincible()
make_invincible()
make_invincible()
make_invincible()
make_invincible()
make_invincible()
make_invincible()
make_invincible()
make_invincible()
make_invincible()
make_invincible()
make_invincible()
make_invincible()
make_invincible()
make_invincible()
make_invincible()
make_invincible()
make_invincible()
make_invincible()
make_invincible()
make_invincible()
make_invincible()
make_invincible()
make_invincible()
make_invincible()
make_invincible()
make_invincible()
make_invincible()
make_invincible()
make_invincible()
make_invincible()
make_invincible()
make_invincible()
make_invincible()
make_invincible()
make_invincible()
make_invincible()
make_invincible()
make_invincible()
make_invincible()
make_invincible()
make_invincible()
make_invincible()
make_invincible()
make_invincible()
make_invincible()
make_invincible()
make_invincible()
make_invincible()
make_invincible()
make_invincible()
make_invincible()
make_invincible()
make_invincible()
make_invincible()
make_invincible()
make_invincible()
make_invincible()
make_invincible()
make_invincible()
make_invincible()
make_invincible()
make_invincible()
make_invincible()
make_invincible()
make_invincible()
make_invincible()
make_invincible()
make_invincible()
make_invincible()
make_invincible()
make_invincible()
make_invincible()
make_invincible()
make_invincible()
make_invincible()
make_invincible()
make_invincible()
make_invincible()
make_invincible()
make_invincible()
make_invincible()
make_invincible()
make_invincible()
make_invincible()
make_invincible()
make_invincible()
make_invincible()
make_invincible()
make_invincible()
make_invincible()
make_invincible()
make_invincible()
make_invincible()
make_invincible()
make_invincible()
make_invincible()
make_invincible()
make_invincible()
make_invincible()
make_invincible()
make_invincible()
make_invincible()
make_invincible()
make_invincible()
make_invincible()
make_invincible()
make_invincible()
make_invincible()
make_invincible()
make_invincible()
make_invincible()
make_invincible()
make_invincible()
make_invincible()
make_invincible()
make_invincible()
make_invincible()
make_invincible()
make_invincible()
make_invincible()
make_invincible()
make_invincible()
make_invincible()
make_invincible()
make_invincible()
make_invincible()
make_invincible()
make_invincible()
make_invincible()
make_invincible()
make_invincible()
make_invincible()
make_invincible()
make_invincible()
make_invincible()
make_invincible()
make_invincible()
make_invincible()
make_invincible()
make_invincible()
make_invincible()
make_invincible()
make_invincible()
make_invincible()
make_invincible()
make_invincible()
make_invincible()
make_invincible()
make_invincible()
make_invincible()
make_invincible()
make_invincible()
make_invincible()
make_invincible()
make_invincible()
make_invincible()
make_invincible()
make_invincible()
make_invincible()
make_invincible()
make_invincible()
make_invincible()
make_invincible()
make_invincible()
make_invincible()
make_invincible()
make_invincible()
make_invincible()
make_invincible()
make_invincible()
make_invincible()
make_invincible()
make_invincible()
make_invincible()
make_invincible()
make_invincible()
make_invincible()
make_invincible()
make_invincible()
make_invincible()
make_invincible()
make_invincible()
make_invincible()
make_invincible()
make_invincible()
make_invincible()
make_invincible()
make_invincible()
make_invincible()
make_invincible()
make_invincible()
make_invincible()
make_invincible()
make_invincible()
make_invincible()
make_invincible()
make_invincible()
make_invincible()
make_invincible()
make_invincible()
make_invincible()
Simulation finished CPU 2 instructions: 5000002 cycles: 17110496 cumulative IPC: 0.2922 (Simulation time: 00 hr 12 min 16 sec)
make_invincible()
make_invincible()
make_invincible()
make_invincible()
make_invincible()
make_invincible()
make_invincible()
make_invincible()
make_invincible()
Heartbeat CPU 2 instructions: 30000001 cycles: 23840547 heartbeat IPC: 0.5311 cumulative IPC: 0.2922 (Simulation time: 00 hr 12 min 28 sec)
make_invincible()
make_invincible()
make_invincible()
make_invincible()
make_invincible()
make_invincible()
make_invincible()
make_invincible()
make_invincible()
Simulation finished CPU 3 instructions: 5000002 cycles: 18431495 cumulative IPC: 0.2713 (Simulation time: 00 hr 12 min 49 sec)
make_invincible()
make_invincible()
make_invincible()
make_invincible()
make_invincible()
make_invincible()
make_invincible()
make_invincible()
make_invincible()
make_invincible()
make_invincible()
make_invincible()
make_invincible()
make_invincible()
make_invincible()
make_invincible()
make_invincible()
make_invincible()
make_invincible()
make_invincible()
make_invincible()
make_invincible()
make_invincible()
make_invincible()
make_invincible()
make_invincible()
make_invincible()
make_invincible()
make_invincible()
make_invincible()
make_invincible()
make_invincible()
make_invincible()
make_invincible()
make_invincible()
make_invincible()
make_invincible()
make_invincible()
make_invincible()
make_invincible()
make_invincible()
make_invincible()
make_invincible()
make_invincible()
make_invincible()
make_invincible()
make_invincible()
make_invincible()
make_invincible()
make_invincible()
make_invincible()
make_invincible()
make_invincible()
make_invincible()
make_invincible()
make_invincible()
make_invincible()
make_invincible()
make_invincible()
make_invincible()
make_invincible()
make_invincible()
make_invincible()
make_invincible()
make_invincible()
make_invincible()
make_invincible()
make_invincible()
make_invincible()
make_invincible()
make_invincible()
make_invincible()
make_invincible()
make_invincible()
make_invincible()
make_invincible()
make_invincible()
make_invincible()
make_invincible()
make_invincible()
make_invincible()
make_invincible()
make_invincible()
make_invincible()
make_invincible()
make_invincible()
make_invincible()
make_invincible()
make_invincible()
make_invincible()
make_invincible()
make_invincible()
make_invincible()
make_invincible()
make_invincible()
make_invincible()
make_invincible()
make_invincible()
make_invincible()
make_invincible()
make_invincible()
make_invincible()
make_invincible()
make_invincible()
make_invincible()
make_invincible()
make_invincible()
make_invincible()
make_invincible()
make_invincible()
make_invincible()
make_invincible()
make_invincible()
make_invincible()
make_invincible()
make_invincible()
make_invincible()
make_invincible()
make_invincible()
make_invincible()
make_invincible()
make_invincible()
make_invincible()
make_invincible()
make_invincible()
make_invincible()
make_invincible()
make_invincible()
make_invincible()
make_invincible()
make_invincible()
make_invincible()
make_invincible()
make_invincible()
make_invincible()
make_invincible()
make_invincible()
make_invincible()
make_invincible()
free_invincible()
random_free_invincible()
make_invincible()
make_invincible()
free_invincible()
random_free_invincible()
make_invincible()
make_invincible()
make_invincible()
make_invincible()
make_invincible()
make_invincible()
make_invincible()
make_invincible()
make_invincible()
make_invincible()
make_invincible()
make_invincible()
make_invincible()
make_invincible()
make_invincible()
make_invincible()
make_invincible()
make_invincible()
make_invincible()
Simulation finished CPU 0 instructions: 5000003 cycles: 29241880 cumulative IPC: 0.171 (Simulation time: 00 hr 17 min 16 sec)
make_invincible()
make_invincible()
free_invincible()
random_free_invincible()
make_invincible()
make_invincible()
make_invincible()
make_invincible()
make_invincible()
make_invincible()
make_invincible()
make_invincible()
make_invincible()
make_invincible()
make_invincible()
make_invincible()
make_invincible()
make_invincible()
make_invincible()
make_invincible()
make_invincible()
make_invincible()
make_invincible()
make_invincible()
Heartbeat CPU 3 instructions: 10000001 cycles: 35961940 heartbeat IPC: 0.2781 cumulative IPC: 0.2691 (Simulation time: 00 hr 17 min 28 sec)
make_invincible()
make_invincible()
make_invincible()
make_invincible()
make_invincible()
make_invincible()
make_invincible()
make_invincible()
make_invincible()
make_invincible()
make_invincible()
make_invincible()
make_invincible()
make_invincible()
make_invincible()
make_invincible()
make_invincible()
make_invincible()
make_invincible()
make_invincible()
make_invincible()
make_invincible()
make_invincible()
make_invincible()
make_invincible()
make_invincible()
make_invincible()
make_invincible()
make_invincible()
make_invincible()
make_invincible()
free_invincible()
random_free_invincible()
make_invincible()
make_invincible()
make_invincible()
make_invincible()
make_invincible()
make_invincible()
make_invincible()
make_invincible()
make_invincible()
make_invincible()
make_invincible()
make_invincible()
make_invincible()
make_invincible()
make_invincible()
make_invincible()
make_invincible()
make_invincible()
make_invincible()
make_invincible()
make_invincible()
make_invincible()
make_invincible()
make_invincible()
make_invincible()
make_invincible()
make_invincible()
make_invincible()
make_invincible()
make_invincible()
make_invincible()
make_invincible()
make_invincible()
make_invincible()
make_invincible()
make_invincible()
make_invincible()
make_invincible()
make_invincible()
make_invincible()
make_invincible()
make_invincible()
make_invincible()
make_invincible()
make_invincible()
make_invincible()
make_invincible()
make_invincible()
make_invincible()
make_invincible()
make_invincible()
make_invincible()
make_invincible()
make_invincible()
make_invincible()
make_invincible()
make_invincible()
make_invincible()
make_invincible()
make_invincible()
make_invincible()
make_invincible()
make_invincible()
make_invincible()
make_invincible()
make_invincible()
make_invincible()
make_invincible()
make_invincible()
make_invincible()
make_invincible()
make_invincible()
make_invincible()
make_invincible()
make_invincible()
make_invincible()
make_invincible()
make_invincible()
make_invincible()
make_invincible()
make_invincible()
make_invincible()
make_invincible()
make_invincible()
make_invincible()
make_invincible()
make_invincible()
make_invincible()
make_invincible()
make_invincible()
make_invincible()
make_invincible()
make_invincible()
make_invincible()
make_invincible()
make_invincible()
make_invincible()
make_invincible()
make_invincible()
make_invincible()
make_invincible()
make_invincible()
make_invincible()
make_invincible()
make_invincible()
make_invincible()
make_invincible()
make_invincible()
make_invincible()
make_invincible()
make_invincible()
make_invincible()
make_invincible()
make_invincible()
make_invincible()
make_invincible()
make_invincible()
make_invincible()
make_invincible()
make_invincible()
make_invincible()
make_invincible()
make_invincible()
make_invincible()
make_invincible()
make_invincible()
make_invincible()
make_invincible()
make_invincible()
make_invincible()
make_invincible()
make_invincible()
make_invincible()
make_invincible()
make_invincible()
make_invincible()
make_invincible()
make_invincible()
make_invincible()
make_invincible()
make_invincible()
make_invincible()
make_invincible()
make_invincible()
make_invincible()
make_invincible()
make_invincible()
make_invincible()
make_invincible()
make_invincible()
make_invincible()
make_invincible()
make_invincible()
make_invincible()
make_invincible()
make_invincible()
make_invincible()
make_invincible()
make_invincible()
make_invincible()
make_invincible()
make_invincible()
make_invincible()
make_invincible()
make_invincible()
make_invincible()
make_invincible()
make_invincible()
make_invincible()
make_invincible()
make_invincible()
make_invincible()
make_invincible()
make_invincible()
make_invincible()
make_invincible()
make_invincible()
make_invincible()
make_invincible()
make_invincible()
make_invincible()
make_invincible()
make_invincible()
make_invincible()
make_invincible()
make_invincible()
make_invincible()
make_invincible()
make_invincible()
make_invincible()
make_invincible()
make_invincible()
make_invincible()
make_invincible()
make_invincible()
make_invincible()
make_invincible()
make_invincible()
make_invincible()
make_invincible()
make_invincible()
make_invincible()
make_invincible()
free_invincible()
random_free_invincible()
make_invincible()
make_invincible()
make_invincible()
make_invincible()
free_invincible()
random_free_invincible()
make_invincible()
make_invincible()
make_invincible()
make_invincible()
make_invincible()
make_invincible()
make_invincible()
free_invincible()
random_free_invincible()
make_invincible()
free_invincible()
random_free_invincible()
make_invincible()
free_invincible()
random_free_invincible()
make_invincible()
make_invincible()
make_invincible()
make_invincible()
make_invincible()
make_invincible()
make_invincible()
make_invincible()
make_invincible()
make_invincible()
make_invincible()
make_invincible()
make_invincible()
make_invincible()
make_invincible()
make_invincible()
make_invincible()
make_invincible()
make_invincible()
make_invincible()
make_invincible()
make_invincible()
make_invincible()
make_invincible()
make_invincible()
make_invincible()
make_invincible()
make_invincible()
make_invincible()
make_invincible()
make_invincible()
make_invincible()
make_invincible()
free_invincible()
random_free_invincible()
make_invincible()
free_invincible()
random_free_invincible()
make_invincible()
make_invincible()
make_invincible()
make_invincible()
make_invincible()
make_invincible()
make_invincible()
make_invincible()
make_invincible()
make_invincible()
make_invincible()
make_invincible()
make_invincible()
make_invincible()
make_invincible()
make_invincible()
make_invincible()
make_invincible()
make_invincible()
make_invincible()
make_invincible()
make_invincible()
make_invincible()
make_invincible()
make_invincible()
make_invincible()
make_invincible()
make_invincible()
make_invincible()
make_invincible()
make_invincible()
make_invincible()
make_invincible()
make_invincible()
make_invincible()
make_invincible()
make_invincible()
make_invincible()
make_invincible()
make_invincible()
make_invincible()
make_invincible()
make_invincible()
make_invincible()
make_invincible()
make_invincible()
make_invincible()
make_invincible()
make_invincible()
make_invincible()
make_invincible()
make_invincible()
make_invincible()
make_invincible()
make_invincible()
make_invincible()
make_invincible()
make_invincible()
make_invincible()
make_invincible()
make_invincible()
make_invincible()
make_invincible()
make_invincible()
make_invincible()
make_invincible()
make_invincible()
make_invincible()
make_invincible()
make_invincible()
make_invincible()
make_invincible()
make_invincible()
make_invincible()
make_invincible()
make_invincible()
make_invincible()
make_invincible()
make_invincible()
make_invincible()
make_invincible()
make_invincible()
make_invincible()
make_invincible()
make_invincible()
make_invincible()
make_invincible()
make_invincible()
make_invincible()
make_invincible()
make_invincible()
make_invincible()
make_invincible()
make_invincible()
make_invincible()
make_invincible()
make_invincible()
make_invincible()
make_invincible()
make_invincible()
make_invincible()
make_invincible()
make_invincible()
make_invincible()
make_invincible()
make_invincible()
make_invincible()
make_invincible()
make_invincible()
make_invincible()
make_invincible()
make_invincible()
make_invincible()
make_invincible()
make_invincible()
make_invincible()
make_invincible()
make_invincible()
make_invincible()
make_invincible()
make_invincible()
make_invincible()
make_invincible()
make_invincible()
make_invincible()
make_invincible()
free_invincible()
random_free_invincible()
make_invincible()
make_invincible()
make_invincible()
make_invincible()
free_invincible()
random_free_invincible()
make_invincible()
free_invincible()
random_free_invincible()
make_invincible()
make_invincible()
make_invincible()
make_invincible()
make_invincible()
make_invincible()
make_invincible()
make_invincible()
make_invincible()
make_invincible()
make_invincible()
make_invincible()
make_invincible()
make_invincible()
make_invincible()
make_invincible()
make_invincible()
make_invincible()
make_invincible()
make_invincible()
make_invincible()
make_invincible()
free_invincible()
random_free_invincible()
make_invincible()
make_invincible()
make_invincible()
free_invincible()
random_free_invincible()
make_invincible()
make_invincible()
make_invincible()
make_invincible()
free_invincible()
random_free_invincible()
make_invincible()
make_invincible()
make_invincible()
make_invincible()
make_invincible()
make_invincible()
make_invincible()
make_invincible()
make_invincible()
make_invincible()
make_invincible()
make_invincible()
make_invincible()
make_invincible()
free_invincible()
random_free_invincible()
make_invincible()
make_invincible()
make_invincible()
free_invincible()
random_free_invincible()
make_invincible()
free_invincible()
random_free_invincible()
make_invincible()
make_invincible()
make_invincible()
make_invincible()
make_invincible()
make_invincible()
make_invincible()
make_invincible()
make_invincible()
free_invincible()
random_free_invincible()
make_invincible()
make_invincible()
make_invincible()
make_invincible()
free_invincible()
random_free_invincible()
make_invincible()
make_invincible()
make_invincible()
make_invincible()
make_invincible()
make_invincible()
make_invincible()
make_invincible()
make_invincible()
make_invincible()
make_invincible()
make_invincible()
make_invincible()
make_invincible()
make_invincible()
make_invincible()
make_invincible()
make_invincible()
make_invincible()
make_invincible()
make_invincible()
make_invincible()
make_invincible()
make_invincible()
make_invincible()
make_invincible()
make_invincible()
make_invincible()
make_invincible()
make_invincible()
make_invincible()
make_invincible()
make_invincible()
make_invincible()
make_invincible()
make_invincible()
make_invincible()
make_invincible()
make_invincible()
make_invincible()
make_invincible()
make_invincible()
make_invincible()
free_invincible()
random_free_invincible()
make_invincible()
free_invincible()
random_free_invincible()
make_invincible()
free_invincible()
random_free_invincible()
make_invincible()
make_invincible()
free_invincible()
random_free_invincible()
make_invincible()
make_invincible()
make_invincible()
make_invincible()
make_invincible()
make_invincible()
make_invincible()
make_invincible()
make_invincible()
free_invincible()
random_free_invincible()
make_invincible()
make_invincible()
make_invincible()
free_invincible()
random_free_invincible()
free_invincible()
random_free_invincible()
make_invincible()
make_invincible()
free_invincible()
random_free_invincible()
make_invincible()
free_invincible()
random_free_invincible()
make_invincible()
free_invincible()
random_free_invincible()
make_invincible()
free_invincible()
random_free_invincible()
make_invincible()
free_invincible()
random_free_invincible()
make_invincible()
free_invincible()
random_free_invincible()
Heartbeat CPU 2 instructions: 40000000 cycles: 58946352 heartbeat IPC: 0.2849 cumulative IPC: 0.2873 (Simulation time: 00 hr 26 min 52 sec)
make_invincible()
make_invincible()
make_invincible()
make_invincible()
make_invincible()
make_invincible()
make_invincible()
make_invincible()
make_invincible()
make_invincible()
make_invincible()
make_invincible()
make_invincible()
make_invincible()
make_invincible()
make_invincible()
make_invincible()
make_invincible()
make_invincible()
make_invincible()
make_invincible()
make_invincible()
make_invincible()
make_invincible()
make_invincible()
make_invincible()
make_invincible()
make_invincible()
make_invincible()
make_invincible()
make_invincible()
make_invincible()
make_invincible()
make_invincible()
make_invincible()
make_invincible()
free_invincible()
random_free_invincible()
make_invincible()
free_invincible()
random_free_invincible()
make_invincible()
free_invincible()
random_free_invincible()
make_invincible()
free_invincible()
random_free_invincible()
make_invincible()
free_invincible()
random_free_invincible()
make_invincible()
free_invincible()
random_free_invincible()
make_invincible()
free_invincible()
random_free_invincible()
make_invincible()
make_invincible()
free_invincible()
random_free_invincible()
make_invincible()
make_invincible()
free_invincible()
random_free_invincible()
make_invincible()
free_invincible()
random_free_invincible()
make_invincible()
free_invincible()
random_free_invincible()
make_invincible()
free_invincible()
random_free_invincible()
make_invincible()
free_invincible()
random_free_invincible()
make_invincible()
free_invincible()
random_free_invincible()
make_invincible()
free_invincible()
random_free_invincible()
make_invincible()
free_invincible()
random_free_invincible()
make_invincible()
free_invincible()
random_free_invincible()
make_invincible()
free_invincible()
random_free_invincible()
make_invincible()
free_invincible()
random_free_invincible()
make_invincible()
make_invincible()
free_invincible()
random_free_invincible()
make_invincible()
free_invincible()
random_free_invincible()
make_invincible()
free_invincible()
random_free_invincible()
make_invincible()
free_invincible()
random_free_invincible()
make_invincible()
make_invincible()
free_invincible()
random_free_invincible()
make_invincible()
make_invincible()
free_invincible()
random_free_invincible()
make_invincible()
free_invincible()
random_free_invincible()
make_invincible()
free_invincible()
random_free_invincible()
make_invincible()
free_invincible()
random_free_invincible()
make_invincible()
make_invincible()
make_invincible()
make_invincible()
make_invincible()
make_invincible()
make_invincible()
make_invincible()
make_invincible()
make_invincible()
make_invincible()
make_invincible()
Heartbeat CPU 0 instructions: 30000003 cycles: 64495296 heartbeat IPC: 0.1716 cumulative IPC: 0.1706 (Simulation time: 00 hr 29 min 10 sec)
make_invincible()
make_invincible()
free_invincible()
random_free_invincible()
make_invincible()
free_invincible()
random_free_invincible()
make_invincible()
make_invincible()
free_invincible()
random_free_invincible()
make_invincible()
free_invincible()
random_free_invincible()
make_invincible()
make_invincible()
make_invincible()
free_invincible()
random_free_invincible()
make_invincible()
free_invincible()
random_free_invincible()
make_invincible()
free_invincible()
random_free_invincible()
make_invincible()
free_invincible()
random_free_invincible()
make_invincible()
make_invincible()
make_invincible()
free_invincible()
random_free_invincible()
make_invincible()
make_invincible()
make_invincible()
free_invincible()
random_free_invincible()
make_invincible()
free_invincible()
random_free_invincible()
make_invincible()
free_invincible()
random_free_invincible()
make_invincible()
make_invincible()
make_invincible()
make_invincible()
make_invincible()
free_invincible()
random_free_invincible()
make_invincible()
make_invincible()
make_invincible()
free_invincible()
random_free_invincible()
make_invincible()
make_invincible()
free_invincible()
random_free_invincible()
make_invincible()
make_invincible()
make_invincible()
make_invincible()
make_invincible()
make_invincible()
make_invincible()
make_invincible()
make_invincible()
make_invincible()
make_invincible()
make_invincible()
make_invincible()
make_invincible()
make_invincible()
make_invincible()
make_invincible()
make_invincible()
make_invincible()
make_invincible()
make_invincible()
make_invincible()
make_invincible()
make_invincible()
make_invincible()
make_invincible()
make_invincible()
make_invincible()
make_invincible()
make_invincible()
make_invincible()
make_invincible()
free_invincible()
random_free_invincible()
free_invincible()
random_free_invincible()
make_invincible()
make_invincible()
make_invincible()
make_invincible()
free_invincible()
random_free_invincible()
free_invincible()
random_free_invincible()
free_invincible()
random_free_invincible()
make_invincible()
make_invincible()
free_invincible()
random_free_invincible()
make_invincible()
free_invincible()
random_free_invincible()
make_invincible()
free_invincible()
random_free_invincible()
make_invincible()
make_invincible()
free_invincible()
random_free_invincible()
make_invincible()
free_invincible()
random_free_invincible()
make_invincible()
make_invincible()
free_invincible()
random_free_invincible()
free_invincible()
random_free_invincible()
make_invincible()
free_invincible()
random_free_invincible()
make_invincible()
free_invincible()
random_free_invincible()
make_invincible()
free_invincible()
random_free_invincible()
make_invincible()
free_invincible()
random_free_invincible()
make_invincible()
free_invincible()
random_free_invincible()
make_invincible()
free_invincible()
random_free_invincible()
make_invincible()
make_invincible()
free_invincible()
random_free_invincible()
make_invincible()
free_invincible()
random_free_invincible()
make_invincible()
free_invincible()
random_free_invincible()
make_invincible()
free_invincible()
random_free_invincible()
make_invincible()
make_invincible()
make_invincible()
make_invincible()
make_invincible()
make_invincible()
make_invincible()
make_invincible()
make_invincible()
make_invincible()
make_invincible()
make_invincible()
make_invincible()
make_invincible()
make_invincible()
make_invincible()
make_invincible()
make_invincible()
make_invincible()
make_invincible()
make_invincible()
make_invincible()
make_invincible()
make_invincible()
make_invincible()
make_invincible()
make_invincible()
make_invincible()
make_invincible()
make_invincible()
make_invincible()
make_invincible()
make_invincible()
make_invincible()
make_invincible()
make_invincible()
make_invincible()
make_invincible()
make_invincible()
make_invincible()
make_invincible()
make_invincible()
free_invincible()
random_free_invincible()
make_invincible()
make_invincible()
make_invincible()
make_invincible()
free_invincible()
random_free_invincible()
make_invincible()
make_invincible()
free_invincible()
random_free_invincible()
make_invincible()
make_invincible()
make_invincible()
make_invincible()
make_invincible()
make_invincible()
make_invincible()
free_invincible()
random_free_invincible()
make_invincible()
free_invincible()
random_free_invincible()
make_invincible()
free_invincible()
random_free_invincible()
make_invincible()
free_invincible()
random_free_invincible()
make_invincible()
free_invincible()
random_free_invincible()
make_invincible()
free_invincible()
random_free_invincible()
make_invincible()
free_invincible()
random_free_invincible()
make_invincible()
free_invincible()
random_free_invincible()
make_invincible()
make_invincible()
make_invincible()
make_invincible()
make_invincible()
free_invincible()
random_free_invincible()
make_invincible()
free_invincible()
random_free_invincible()
make_invincible()
make_invincible()
make_invincible()
free_invincible()
random_free_invincible()
make_invincible()
make_invincible()
make_invincible()
free_invincible()
random_free_invincible()
make_invincible()
make_invincible()
make_invincible()
make_invincible()
make_invincible()
free_invincible()
random_free_invincible()
make_invincible()
make_invincible()
free_invincible()
random_free_invincible()
make_invincible()
free_invincible()
random_free_invincible()
make_invincible()
free_invincible()
random_free_invincible()
make_invincible()
make_invincible()
free_invincible()
random_free_invincible()
make_invincible()
make_invincible()
free_invincible()
random_free_invincible()
free_invincible()
random_free_invincible()
make_invincible()
make_invincible()
make_invincible()
make_invincible()
free_invincible()
random_free_invincible()
make_invincible()
make_invincible()
make_invincible()
make_invincible()
make_invincible()
make_invincible()
Heartbeat CPU 3 instructions: 20000003 cycles: 74398965 heartbeat IPC: 0.2602 cumulative IPC: 0.264 (Simulation time: 00 hr 33 min 14 sec)
make_invincible()
make_invincible()
free_invincible()
random_free_invincible()
make_invincible()
make_invincible()
free_invincible()
random_free_invincible()
make_invincible()
free_invincible()
random_free_invincible()
make_invincible()
make_invincible()
make_invincible()
make_invincible()
make_invincible()
make_invincible()
make_invincible()
free_invincible()
random_free_invincible()
make_invincible()
free_invincible()
random_free_invincible()
make_invincible()
free_invincible()
random_free_invincible()
make_invincible()
make_invincible()
free_invincible()
random_free_invincible()
make_invincible()
make_invincible()
free_invincible()
random_free_invincible()
make_invincible()
make_invincible()
make_invincible()
make_invincible()
free_invincible()
random_free_invincible()
make_invincible()
free_invincible()
random_free_invincible()
make_invincible()
make_invincible()
make_invincible()
make_invincible()
make_invincible()
make_invincible()
make_invincible()
make_invincible()
free_invincible()
random_free_invincible()
make_invincible()
make_invincible()
make_invincible()
make_invincible()
free_invincible()
random_free_invincible()
make_invincible()
make_invincible()
free_invincible()
random_free_invincible()
make_invincible()
make_invincible()
free_invincible()
random_free_invincible()
make_invincible()
make_invincible()
make_invincible()
free_invincible()
random_free_invincible()
free_invincible()
random_free_invincible()
make_invincible()
free_invincible()
random_free_invincible()
make_invincible()
make_invincible()
make_invincible()
free_invincible()
random_free_invincible()
make_invincible()
make_invincible()
free_invincible()
random_free_invincible()
make_invincible()
free_invincible()
random_free_invincible()
make_invincible()
free_invincible()
random_free_invincible()
make_invincible()
make_invincible()
make_invincible()
free_invincible()
random_free_invincible()
make_invincible()
make_invincible()
make_invincible()
make_invincible()
free_invincible()
random_free_invincible()
make_invincible()
make_invincible()
free_invincible()
random_free_invincible()
make_invincible()
free_invincible()
random_free_invincible()
make_invincible()
free_invincible()
random_free_invincible()
make_invincible()
free_invincible()
random_free_invincible()
make_invincible()
free_invincible()
random_free_invincible()
make_invincible()
make_invincible()
free_invincible()
random_free_invincible()
make_invincible()
free_invincible()
random_free_invincible()
make_invincible()
make_invincible()
free_invincible()
random_free_invincible()
make_invincible()
make_invincible()
make_invincible()
make_invincible()
make_invincible()
make_invincible()
free_invincible()
random_free_invincible()
make_invincible()
make_invincible()
free_invincible()
random_free_invincible()
make_invincible()
free_invincible()
random_free_invincible()
make_invincible()
free_invincible()
random_free_invincible()
make_invincible()
make_invincible()
free_invincible()
random_free_invincible()
make_invincible()
free_invincible()
random_free_invincible()
make_invincible()
free_invincible()
random_free_invincible()
make_invincible()
free_invincible()
random_free_invincible()
make_invincible()
make_invincible()
make_invincible()
make_invincible()
free_invincible()
random_free_invincible()
make_invincible()
make_invincible()
make_invincible()
make_invincible()
free_invincible()
random_free_invincible()
make_invincible()
make_invincible()
make_invincible()
make_invincible()
make_invincible()
free_invincible()
random_free_invincible()
make_invincible()
free_invincible()
random_free_invincible()
make_invincible()
make_invincible()
free_invincible()
random_free_invincible()
make_invincible()
make_invincible()
make_invincible()
make_invincible()
make_invincible()
make_invincible()
make_invincible()
make_invincible()
make_invincible()
make_invincible()
free_invincible()
random_free_invincible()
make_invincible()
free_invincible()
random_free_invincible()
make_invincible()
make_invincible()
make_invincible()
make_invincible()
make_invincible()
make_invincible()
free_invincible()
random_free_invincible()
free_invincible()
random_free_invincible()
free_invincible()
random_free_invincible()
free_invincible()
random_free_invincible()
make_invincible()
free_invincible()
random_free_invincible()
make_invincible()
make_invincible()
make_invincible()
free_invincible()
random_free_invincible()
make_invincible()
free_invincible()
random_free_invincible()
make_invincible()
free_invincible()
random_free_invincible()
make_invincible()
free_invincible()
random_free_invincible()
make_invincible()
free_invincible()
random_free_invincible()
make_invincible()
make_invincible()
free_invincible()
random_free_invincible()
make_invincible()
make_invincible()
make_invincible()
make_invincible()
free_invincible()
random_free_invincible()
make_invincible()
make_invincible()
make_invincible()
make_invincible()
free_invincible()
random_free_invincible()
make_invincible()
make_invincible()
free_invincible()
random_free_invincible()
make_invincible()
make_invincible()
make_invincible()
make_invincible()
make_invincible()
make_invincible()
free_invincible()
random_free_invincible()
make_invincible()
make_invincible()
make_invincible()
make_invincible()
make_invincible()
make_invincible()
make_invincible()
make_invincible()
make_invincible()
make_invincible()
make_invincible()
make_invincible()
free_invincible()
random_free_invincible()
make_invincible()
make_invincible()
make_invincible()
make_invincible()
free_invincible()
random_free_invincible()
make_invincible()
free_invincible()
random_free_invincible()
make_invincible()
make_invincible()
make_invincible()
make_invincible()
make_invincible()
make_invincible()
make_invincible()
free_invincible()
random_free_invincible()
make_invincible()
free_invincible()
random_free_invincible()
make_invincible()
free_invincible()
random_free_invincible()
make_invincible()
make_invincible()
free_invincible()
random_free_invincible()
make_invincible()
free_invincible()
random_free_invincible()
make_invincible()
free_invincible()
random_free_invincible()
make_invincible()
make_invincible()
make_invincible()
free_invincible()
random_free_invincible()
make_invincible()
free_invincible()
random_free_invincible()
make_invincible()
make_invincible()
make_invincible()
free_invincible()
random_free_invincible()
make_invincible()
free_invincible()
random_free_invincible()
make_invincible()
make_invincible()
free_invincible()
random_free_invincible()
make_invincible()
free_invincible()
random_free_invincible()
make_invincible()
make_invincible()
make_invincible()
make_invincible()
free_invincible()
random_free_invincible()
make_invincible()
make_invincible()
free_invincible()
random_free_invincible()
make_invincible()
make_invincible()
make_invincible()
make_invincible()
make_invincible()
make_invincible()
make_invincible()
free_invincible()
random_free_invincible()
make_invincible()
make_invincible()
make_invincible()
make_invincible()
make_invincible()
make_invincible()
make_invincible()
make_invincible()
free_invincible()
random_free_invincible()
make_invincible()
make_invincible()
make_invincible()
free_invincible()
random_free_invincible()
make_invincible()
make_invincible()
free_invincible()
random_free_invincible()
make_invincible()
make_invincible()
make_invincible()
make_invincible()
make_invincible()
make_invincible()
make_invincible()
make_invincible()
make_invincible()
make_invincible()
free_invincible()
random_free_invincible()
make_invincible()
make_invincible()
free_invincible()
random_free_invincible()
make_invincible()
free_invincible()
random_free_invincible()
make_invincible()
free_invincible()
random_free_invincible()
make_invincible()
make_invincible()
free_invincible()
random_free_invincible()
free_invincible()
random_free_invincible()
make_invincible()
free_invincible()
random_free_invincible()
make_invincible()
free_invincible()
random_free_invincible()
make_invincible()
make_invincible()
free_invincible()
random_free_invincible()
make_invincible()
make_invincible()
make_invincible()
make_invincible()
make_invincible()
make_invincible()
make_invincible()
make_invincible()
make_invincible()
make_invincible()
make_invincible()
make_invincible()
make_invincible()
make_invincible()
make_invincible()
make_invincible()
make_invincible()
make_invincible()
make_invincible()
make_invincible()
make_invincible()
make_invincible()
make_invincible()
make_invincible()
make_invincible()
make_invincible()
make_invincible()
make_invincible()
make_invincible()
make_invincible()
make_invincible()
make_invincible()
make_invincible()
make_invincible()
make_invincible()
make_invincible()
make_invincible()
make_invincible()
make_invincible()
make_invincible()
make_invincible()
make_invincible()
make_invincible()
make_invincible()
make_invincible()
make_invincible()
make_invincible()
make_invincible()
make_invincible()
make_invincible()
make_invincible()
make_invincible()
make_invincible()
make_invincible()
make_invincible()
make_invincible()
make_invincible()
make_invincible()
make_invincible()
make_invincible()
make_invincible()
make_invincible()
make_invincible()
make_invincible()
make_invincible()
make_invincible()
make_invincible()
make_invincible()
make_invincible()
make_invincible()
make_invincible()
make_invincible()
make_invincible()
make_invincible()
make_invincible()
make_invincible()
make_invincible()
make_invincible()
make_invincible()
make_invincible()
make_invincible()
make_invincible()
make_invincible()
make_invincible()
make_invincible()
free_invincible()
random_free_invincible()
make_invincible()
free_invincible()
random_free_invincible()
make_invincible()
make_invincible()
make_invincible()
make_invincible()
make_invincible()
free_invincible()
random_free_invincible()
make_invincible()
make_invincible()
make_invincible()
make_invincible()
make_invincible()
make_invincible()
make_invincible()
make_invincible()
make_invincible()
make_invincible()
make_invincible()
make_invincible()
make_invincible()
make_invincible()
free_invincible()
random_free_invincible()
make_invincible()
make_invincible()
make_invincible()
make_invincible()
free_invincible()
random_free_invincible()
make_invincible()
make_invincible()
free_invincible()
random_free_invincible()
make_invincible()
make_invincible()
free_invincible()
random_free_invincible()
make_invincible()
make_invincible()
make_invincible()
make_invincible()
make_invincible()
make_invincible()
make_invincible()
make_invincible()
make_invincible()
make_invincible()
free_invincible()
random_free_invincible()
make_invincible()
make_invincible()
make_invincible()
make_invincible()
make_invincible()
free_invincible()
random_free_invincible()
make_invincible()
free_invincible()
random_free_invincible()
make_invincible()
make_invincible()
make_invincible()
make_invincible()
free_invincible()
random_free_invincible()
make_invincible()
make_invincible()
make_invincible()
make_invincible()
make_invincible()
make_invincible()
make_invincible()
make_invincible()
make_invincible()
make_invincible()
make_invincible()
make_invincible()
make_invincible()
make_invincible()
make_invincible()
make_invincible()
free_invincible()
random_free_invincible()
make_invincible()
make_invincible()
free_invincible()
random_free_invincible()
make_invincible()
make_invincible()
make_invincible()
make_invincible()
free_invincible()
random_free_invincible()
make_invincible()
make_invincible()
make_invincible()
make_invincible()
make_invincible()
make_invincible()
free_invincible()
random_free_invincible()
make_invincible()
make_invincible()
make_invincible()
free_invincible()
random_free_invincible()
make_invincible()
make_invincible()
free_invincible()
random_free_invincible()
make_invincible()
make_invincible()
make_invincible()
free_invincible()
random_free_invincible()
make_invincible()
make_invincible()
free_invincible()
random_free_invincible()
make_invincible()
make_invincible()
free_invincible()
random_free_invincible()
make_invincible()
make_invincible()
invincible read miss
free_invincible()
random_free_invincible()
make_invincible()
make_invincible()
make_invincible()
make_invincible()
make_invincible()
free_invincible()
random_free_invincible()
free_invincible()
random_free_invincible()
make_invincible()
make_invincible()
free_invincible()
random_free_invincible()
make_invincible()
make_invincible()
free_invincible()
random_free_invincible()
make_invincible()
make_invincible()
make_invincible()
make_invincible()
make_invincible()
make_invincible()
make_invincible()
make_invincible()
make_invincible()
make_invincible()
make_invincible()
make_invincible()
make_invincible()
free_invincible()
random_free_invincible()
make_invincible()
free_invincible()
random_free_invincible()
make_invincible()
make_invincible()
free_invincible()
random_free_invincible()
make_invincible()
make_invincible()
free_invincible()
random_free_invincible()
make_invincible()
make_invincible()
make_invincible()
free_invincible()
random_free_invincible()
make_invincible()
make_invincible()
make_invincible()
free_invincible()
random_free_invincible()
make_invincible()
make_invincible()
free_invincible()
random_free_invincible()
make_invincible()
free_invincible()
random_free_invincible()
make_invincible()
free_invincible()
random_free_invincible()
make_invincible()
free_invincible()
random_free_invincible()
make_invincible()
free_invincible()
random_free_invincible()
make_invincible()
make_invincible()
free_invincible()
random_free_invincible()
make_invincible()
make_invincible()
free_invincible()
random_free_invincible()
make_invincible()
make_invincible()
make_invincible()
make_invincible()
make_invincible()
make_invincible()
make_invincible()
make_invincible()
make_invincible()
make_invincible()
make_invincible()
make_invincible()
make_invincible()
make_invincible()
make_invincible()
make_invincible()
make_invincible()
make_invincible()
make_invincible()
make_invincible()
make_invincible()
make_invincible()
make_invincible()
make_invincible()
make_invincible()
make_invincible()
make_invincible()
make_invincible()
make_invincible()
make_invincible()
make_invincible()
make_invincible()
make_invincible()
make_invincible()
make_invincible()
make_invincible()
make_invincible()
make_invincible()
make_invincible()
make_invincible()
make_invincible()
make_invincible()
make_invincible()
make_invincible()
make_invincible()
make_invincible()
free_invincible()
random_free_invincible()
make_invincible()
free_invincible()
random_free_invincible()
make_invincible()
make_invincible()
make_invincible()
make_invincible()
make_invincible()
make_invincible()
make_invincible()
make_invincible()
make_invincible()
make_invincible()
make_invincible()
make_invincible()
make_invincible()
make_invincible()
make_invincible()
free_invincible()
random_free_invincible()
make_invincible()
make_invincible()
free_invincible()
random_free_invincible()
make_invincible()
make_invincible()
free_invincible()
random_free_invincible()
make_invincible()
make_invincible()
make_invincible()
make_invincible()
free_invincible()
random_free_invincible()
make_invincible()
make_invincible()
free_invincible()
random_free_invincible()
make_invincible()
make_invincible()
make_invincible()
make_invincible()
make_invincible()
make_invincible()
make_invincible()
make_invincible()
make_invincible()
make_invincible()
make_invincible()
make_invincible()
make_invincible()
free_invincible()
random_free_invincible()
make_invincible()
make_invincible()
make_invincible()
make_invincible()
make_invincible()
make_invincible()
free_invincible()
random_free_invincible()
make_invincible()
free_invincible()
random_free_invincible()
make_invincible()
free_invincible()
random_free_invincible()
make_invincible()
free_invincible()
random_free_invincible()
make_invincible()
make_invincible()
make_invincible()
free_invincible()
random_free_invincible()
free_invincible()
random_free_invincible()
make_invincible()
make_invincible()
free_invincible()
random_free_invincible()
make_invincible()
make_invincible()
free_invincible()
random_free_invincible()
make_invincible()
make_invincible()
free_invincible()
random_free_invincible()
make_invincible()
make_invincible()
free_invincible()
random_free_invincible()
make_invincible()
make_invincible()
make_invincible()
make_invincible()
make_invincible()
make_invincible()
make_invincible()
make_invincible()
make_invincible()
make_invincible()
make_invincible()
make_invincible()
make_invincible()
free_invincible()
random_free_invincible()
make_invincible()
make_invincible()
make_invincible()
make_invincible()
make_invincible()
free_invincible()
random_free_invincible()
make_invincible()
free_invincible()
random_free_invincible()
make_invincible()
make_invincible()
free_invincible()
random_free_invincible()
make_invincible()
free_invincible()
random_free_invincible()
make_invincible()
make_invincible()
free_invincible()
random_free_invincible()
make_invincible()
make_invincible()
free_invincible()
random_free_invincible()
make_invincible()
make_invincible()
make_invincible()
make_invincible()
make_invincible()
make_invincible()
Heartbeat CPU 2 instructions: 50000000 cycles: 93732242 heartbeat IPC: 0.2875 cumulative IPC: 0.2874 (Simulation time: 00 hr 41 min 07 sec)
make_invincible()
free_invincible()
random_free_invincible()
make_invincible()
free_invincible()
random_free_invincible()
make_invincible()
free_invincible()
random_free_invincible()
make_invincible()
free_invincible()
random_free_invincible()
make_invincible()
free_invincible()
random_free_invincible()
make_invincible()
make_invincible()
free_invincible()
random_free_invincible()
make_invincible()
free_invincible()
random_free_invincible()
make_invincible()
free_invincible()
random_free_invincible()
make_invincible()
free_invincible()
random_free_invincible()
make_invincible()
free_invincible()
random_free_invincible()
make_invincible()
free_invincible()
random_free_invincible()
make_invincible()
make_invincible()
free_invincible()
random_free_invincible()
make_invincible()
make_invincible()
make_invincible()
make_invincible()
make_invincible()
make_invincible()
make_invincible()
make_invincible()
make_invincible()
make_invincible()
make_invincible()
make_invincible()
make_invincible()
free_invincible()
random_free_invincible()
make_invincible()
free_invincible()
random_free_invincible()
make_invincible()
make_invincible()
free_invincible()
random_free_invincible()
make_invincible()
free_invincible()
random_free_invincible()
make_invincible()
make_invincible()
free_invincible()
random_free_invincible()
make_invincible()
make_invincible()
free_invincible()
random_free_invincible()
make_invincible()
free_invincible()
random_free_invincible()
make_invincible()
make_invincible()
make_invincible()
free_invincible()
random_free_invincible()
make_invincible()
free_invincible()
random_free_invincible()
make_invincible()
make_invincible()
make_invincible()
make_invincible()
make_invincible()
free_invincible()
random_free_invincible()
make_invincible()
make_invincible()
make_invincible()
make_invincible()
make_invincible()
free_invincible()
random_free_invincible()
make_invincible()
make_invincible()
make_invincible()
make_invincible()
free_invincible()
random_free_invincible()
make_invincible()
make_invincible()
free_invincible()
random_free_invincible()
make_invincible()
make_invincible()
make_invincible()
make_invincible()
make_invincible()
make_invincible()
make_invincible()
make_invincible()
make_invincible()
make_invincible()
make_invincible()
make_invincible()
make_invincible()
make_invincible()
free_invincible()
random_free_invincible()
make_invincible()
make_invincible()
free_invincible()
random_free_invincible()
free_invincible()
random_free_invincible()
make_invincible()
free_invincible()
random_free_invincible()
make_invincible()
make_invincible()
free_invincible()
random_free_invincible()
make_invincible()
make_invincible()
free_invincible()
random_free_invincible()
make_invincible()
make_invincible()
make_invincible()
make_invincible()
free_invincible()
random_free_invincible()
make_invincible()
make_invincible()
free_invincible()
random_free_invincible()
make_invincible()
free_invincible()
random_free_invincible()
make_invincible()
free_invincible()
random_free_invincible()
make_invincible()
free_invincible()
random_free_invincible()
make_invincible()
make_invincible()
free_invincible()
random_free_invincible()
make_invincible()
free_invincible()
random_free_invincible()
make_invincible()
free_invincible()
random_free_invincible()
make_invincible()
free_invincible()
random_free_invincible()
make_invincible()
free_invincible()
random_free_invincible()
make_invincible()
free_invincible()
random_free_invincible()
make_invincible()
free_invincible()
random_free_invincible()
make_invincible()
make_invincible()
make_invincible()
free_invincible()
random_free_invincible()
free_invincible()
random_free_invincible()
free_invincible()
random_free_invincible()
make_invincible()
make_invincible()
free_invincible()
random_free_invincible()
make_invincible()
free_invincible()
random_free_invincible()
make_invincible()
make_invincible()
free_invincible()
random_free_invincible()
free_invincible()
random_free_invincible()
make_invincible()
make_invincible()
make_invincible()
free_invincible()
random_free_invincible()
free_invincible()
random_free_invincible()
free_invincible()
random_free_invincible()
make_invincible()
free_invincible()
random_free_invincible()
make_invincible()
free_invincible()
random_free_invincible()
make_invincible()
free_invincible()
random_free_invincible()
make_invincible()
free_invincible()
random_free_invincible()
make_invincible()
free_invincible()
random_free_invincible()
make_invincible()
free_invincible()
random_free_invincible()
make_invincible()
free_invincible()
random_free_invincible()
make_invincible()
make_invincible()
make_invincible()
free_invincible()
random_free_invincible()
make_invincible()
free_invincible()
random_free_invincible()
make_invincible()
make_invincible()
free_invincible()
random_free_invincible()
make_invincible()
free_invincible()
random_free_invincible()
make_invincible()
make_invincible()
free_invincible()
random_free_invincible()
free_invincible()
random_free_invincible()
make_invincible()
make_invincible()
make_invincible()
make_invincible()
make_invincible()
make_invincible()
make_invincible()
free_invincible()
random_free_invincible()
make_invincible()
free_invincible()
random_free_invincible()
make_invincible()
make_invincible()
make_invincible()
free_invincible()
random_free_invincible()
make_invincible()
make_invincible()
free_invincible()
random_free_invincible()
make_invincible()
make_invincible()
free_invincible()
random_free_invincible()
free_invincible()
random_free_invincible()
make_invincible()
make_invincible()
free_invincible()
random_free_invincible()
make_invincible()
free_invincible()
random_free_invincible()
make_invincible()
make_invincible()
free_invincible()
random_free_invincible()
free_invincible()
random_free_invincible()
make_invincible()
make_invincible()
free_invincible()
random_free_invincible()
make_invincible()
make_invincible()
free_invincible()
random_free_invincible()
make_invincible()
free_invincible()
random_free_invincible()
make_invincible()
make_invincible()
make_invincible()
make_invincible()
make_invincible()
free_invincible()
random_free_invincible()
make_invincible()
make_invincible()
free_invincible()
random_free_invincible()
make_invincible()
make_invincible()
free_invincible()
random_free_invincible()
make_invincible()
make_invincible()
make_invincible()
free_invincible()
random_free_invincible()
make_invincible()
make_invincible()
free_invincible()
random_free_invincible()
make_invincible()
make_invincible()
make_invincible()
free_invincible()
random_free_invincible()
make_invincible()
make_invincible()
make_invincible()
free_invincible()
random_free_invincible()
make_invincible()
free_invincible()
random_free_invincible()
make_invincible()
make_invincible()
make_invincible()
make_invincible()
free_invincible()
random_free_invincible()
make_invincible()
make_invincible()
make_invincible()
free_invincible()
random_free_invincible()
make_invincible()
free_invincible()
random_free_invincible()
make_invincible()
free_invincible()
random_free_invincible()
make_invincible()
make_invincible()
free_invincible()
random_free_invincible()
make_invincible()
free_invincible()
random_free_invincible()
make_invincible()
make_invincible()
free_invincible()
random_free_invincible()
make_invincible()
make_invincible()
free_invincible()
random_free_invincible()
free_invincible()
random_free_invincible()
make_invincible()
make_invincible()
make_invincible()
free_invincible()
random_free_invincible()
free_invincible()
random_free_invincible()
make_invincible()
free_invincible()
random_free_invincible()
make_invincible()
make_invincible()
make_invincible()
free_invincible()
random_free_invincible()
make_invincible()
make_invincible()
make_invincible()
free_invincible()
random_free_invincible()
make_invincible()
free_invincible()
random_free_invincible()
make_invincible()
make_invincible()
make_invincible()
make_invincible()
free_invincible()
random_free_invincible()
make_invincible()
make_invincible()
make_invincible()
make_invincible()
make_invincible()
make_invincible()
make_invincible()
make_invincible()
make_invincible()
make_invincible()
make_invincible()
make_invincible()
make_invincible()
free_invincible()
random_free_invincible()
make_invincible()
free_invincible()
random_free_invincible()
make_invincible()
free_invincible()
random_free_invincible()
make_invincible()
free_invincible()
random_free_invincible()
make_invincible()
free_invincible()
random_free_invincible()
make_invincible()
free_invincible()
random_free_invincible()
make_invincible()
free_invincible()
random_free_invincible()
make_invincible()
make_invincible()
free_invincible()
random_free_invincible()
free_invincible()
random_free_invincible()
make_invincible()
free_invincible()
random_free_invincible()
make_invincible()
free_invincible()
random_free_invincible()
make_invincible()
make_invincible()
free_invincible()
random_free_invincible()
make_invincible()
make_invincible()
make_invincible()
free_invincible()
random_free_invincible()
make_invincible()
make_invincible()
make_invincible()
make_invincible()
make_invincible()
make_invincible()
make_invincible()
free_invincible()
random_free_invincible()
make_invincible()
free_invincible()
random_free_invincible()
make_invincible()
make_invincible()
make_invincible()
free_invincible()
random_free_invincible()
make_invincible()
free_invincible()
random_free_invincible()
make_invincible()
make_invincible()
free_invincible()
random_free_invincible()
make_invincible()
free_invincible()
random_free_invincible()
make_invincible()
make_invincible()
free_invincible()
random_free_invincible()
make_invincible()
free_invincible()
random_free_invincible()
make_invincible()
free_invincible()
random_free_invincible()
make_invincible()
free_invincible()
random_free_invincible()
make_invincible()
free_invincible()
random_free_invincible()
make_invincible()
free_invincible()
random_free_invincible()
make_invincible()
free_invincible()
random_free_invincible()
make_invincible()
free_invincible()
random_free_invincible()
make_invincible()
free_invincible()
random_free_invincible()
make_invincible()
free_invincible()
random_free_invincible()
make_invincible()
make_invincible()
make_invincible()
free_invincible()
random_free_invincible()
make_invincible()
free_invincible()
random_free_invincible()
make_invincible()
free_invincible()
random_free_invincible()
make_invincible()
free_invincible()
random_free_invincible()
make_invincible()
make_invincible()
make_invincible()
make_invincible()
make_invincible()
make_invincible()
make_invincible()
make_invincible()
make_invincible()
make_invincible()
make_invincible()
make_invincible()
make_invincible()
make_invincible()
make_invincible()
make_invincible()
make_invincible()
make_invincible()
make_invincible()
make_invincible()
make_invincible()
make_invincible()
make_invincible()
make_invincible()
make_invincible()
make_invincible()
make_invincible()
make_invincible()
make_invincible()
make_invincible()
make_invincible()
make_invincible()
make_invincible()
make_invincible()
make_invincible()
make_invincible()
make_invincible()
make_invincible()
make_invincible()
make_invincible()
make_invincible()
make_invincible()
make_invincible()
make_invincible()
make_invincible()
make_invincible()
make_invincible()
make_invincible()
make_invincible()
make_invincible()
make_invincible()
make_invincible()
make_invincible()
make_invincible()
make_invincible()
make_invincible()
make_invincible()
make_invincible()
make_invincible()
make_invincible()
make_invincible()
make_invincible()
make_invincible()
make_invincible()
make_invincible()
make_invincible()
make_invincible()
make_invincible()
make_invincible()
make_invincible()
make_invincible()
make_invincible()
make_invincible()
make_invincible()
make_invincible()
make_invincible()
make_invincible()
make_invincible()
make_invincible()
make_invincible()
make_invincible()
make_invincible()
make_invincible()
make_invincible()
make_invincible()
make_invincible()
make_invincible()
make_invincible()
make_invincible()
make_invincible()
make_invincible()
make_invincible()
make_invincible()
make_invincible()
make_invincible()
make_invincible()
make_invincible()
make_invincible()
make_invincible()
make_invincible()
make_invincible()
make_invincible()
make_invincible()
make_invincible()
make_invincible()
make_invincible()
make_invincible()
make_invincible()
make_invincible()
make_invincible()
make_invincible()
make_invincible()
make_invincible()
make_invincible()
make_invincible()
make_invincible()
make_invincible()
make_invincible()
make_invincible()
make_invincible()
make_invincible()
make_invincible()
make_invincible()
make_invincible()
make_invincible()
make_invincible()
make_invincible()
make_invincible()
make_invincible()
make_invincible()
make_invincible()
make_invincible()
make_invincible()
make_invincible()
make_invincible()
make_invincible()
make_invincible()
free_invincible()
random_free_invincible()
make_invincible()
free_invincible()
random_free_invincible()
make_invincible()
free_invincible()
random_free_invincible()
make_invincible()
make_invincible()
make_invincible()
make_invincible()
make_invincible()
free_invincible()
random_free_invincible()
make_invincible()
make_invincible()
make_invincible()
make_invincible()
make_invincible()
make_invincible()
free_invincible()
random_free_invincible()
make_invincible()
make_invincible()
make_invincible()
free_invincible()
random_free_invincible()
make_invincible()
make_invincible()
free_invincible()
random_free_invincible()
make_invincible()
make_invincible()
make_invincible()
free_invincible()
random_free_invincible()
make_invincible()
make_invincible()
make_invincible()
make_invincible()
make_invincible()
free_invincible()
random_free_invincible()
free_invincible()
random_free_invincible()
make_invincible()
make_invincible()
free_invincible()
random_free_invincible()
make_invincible()
make_invincible()
make_invincible()
make_invincible()
free_invincible()
random_free_invincible()
make_invincible()
make_invincible()
free_invincible()
random_free_invincible()
make_invincible()
make_invincible()
make_invincible()
free_invincible()
random_free_invincible()
free_invincible()
random_free_invincible()
make_invincible()
make_invincible()
free_invincible()
random_free_invincible()
make_invincible()
make_invincible()
free_invincible()
random_free_invincible()
make_invincible()
make_invincible()
free_invincible()
random_free_invincible()
make_invincible()
free_invincible()
random_free_invincible()
make_invincible()
free_invincible()
random_free_invincible()
make_invincible()
free_invincible()
random_free_invincible()
make_invincible()
make_invincible()
make_invincible()
make_invincible()
make_invincible()
free_invincible()
random_free_invincible()
make_invincible()
free_invincible()
random_free_invincible()
make_invincible()
free_invincible()
random_free_invincible()
make_invincible()
free_invincible()
random_free_invincible()
make_invincible()
free_invincible()
random_free_invincible()
make_invincible()
make_invincible()
make_invincible()
free_invincible()
random_free_invincible()
make_invincible()
make_invincible()
make_invincible()
make_invincible()
make_invincible()
free_invincible()
random_free_invincible()
make_invincible()
free_invincible()
random_free_invincible()
make_invincible()
make_invincible()
free_invincible()
random_free_invincible()
make_invincible()
make_invincible()
make_invincible()
free_invincible()
random_free_invincible()
make_invincible()
make_invincible()
make_invincible()
free_invincible()
random_free_invincible()
make_invincible()
free_invincible()
random_free_invincible()
make_invincible()
free_invincible()
random_free_invincible()
make_invincible()
make_invincible()
make_invincible()
make_invincible()
make_invincible()
make_invincible()
make_invincible()
make_invincible()
make_invincible()
make_invincible()
make_invincible()
make_invincible()
make_invincible()
make_invincible()
free_invincible()
random_free_invincible()
make_invincible()
make_invincible()
make_invincible()
make_invincible()
make_invincible()
make_invincible()
make_invincible()
make_invincible()
make_invincible()
free_invincible()
random_free_invincible()
make_invincible()
make_invincible()
make_invincible()
make_invincible()
make_invincible()
free_invincible()
random_free_invincible()
make_invincible()
make_invincible()
make_invincible()
make_invincible()
make_invincible()
make_invincible()
make_invincible()
free_invincible()
random_free_invincible()
make_invincible()
make_invincible()
free_invincible()
random_free_invincible()
make_invincible()
make_invincible()
make_invincible()
free_invincible()
random_free_invincible()
make_invincible()
free_invincible()
random_free_invincible()
make_invincible()
make_invincible()
free_invincible()
random_free_invincible()
make_invincible()
make_invincible()
make_invincible()
make_invincible()
make_invincible()
free_invincible()
random_free_invincible()
make_invincible()
make_invincible()
make_invincible()
free_invincible()
random_free_invincible()
make_invincible()
make_invincible()
free_invincible()
random_free_invincible()
make_invincible()
make_invincible()
make_invincible()
make_invincible()
make_invincible()
make_invincible()
make_invincible()
make_invincible()
free_invincible()
random_free_invincible()
make_invincible()
make_invincible()
make_invincible()
make_invincible()
make_invincible()
make_invincible()
free_invincible()
random_free_invincible()
make_invincible()
make_invincible()
free_invincible()
random_free_invincible()
make_invincible()
make_invincible()
free_invincible()
random_free_invincible()
make_invincible()
make_invincible()
make_invincible()
make_invincible()
make_invincible()
make_invincible()
make_invincible()
make_invincible()
make_invincible()
free_invincible()
random_free_invincible()
make_invincible()
make_invincible()
make_invincible()
free_invincible()
random_free_invincible()
make_invincible()
make_invincible()
make_invincible()
make_invincible()
free_invincible()
random_free_invincible()
make_invincible()
make_invincible()
make_invincible()
make_invincible()
make_invincible()
make_invincible()
make_invincible()
make_invincible()
make_invincible()
make_invincible()
free_invincible()
random_free_invincible()
make_invincible()
make_invincible()
make_invincible()
free_invincible()
random_free_invincible()
make_invincible()
make_invincible()
make_invincible()
make_invincible()
make_invincible()
make_invincible()
make_invincible()
free_invincible()
random_free_invincible()
free_invincible()
random_free_invincible()
make_invincible()
make_invincible()
free_invincible()
random_free_invincible()
make_invincible()
make_invincible()
make_invincible()
make_invincible()
free_invincible()
random_free_invincible()
make_invincible()
make_invincible()
make_invincible()
make_invincible()
make_invincible()
free_invincible()
random_free_invincible()
make_invincible()
make_invincible()
make_invincible()
make_invincible()
make_invincible()
free_invincible()
random_free_invincible()
make_invincible()
make_invincible()
make_invincible()
make_invincible()
make_invincible()
make_invincible()
make_invincible()
make_invincible()
make_invincible()
make_invincible()
free_invincible()
random_free_invincible()
make_invincible()
free_invincible()
random_free_invincible()
make_invincible()
make_invincible()
make_invincible()
make_invincible()
make_invincible()
make_invincible()
free_invincible()
random_free_invincible()
make_invincible()
make_invincible()
free_invincible()
random_free_invincible()
make_invincible()
make_invincible()
make_invincible()
make_invincible()
make_invincible()
make_invincible()
make_invincible()
make_invincible()
make_invincible()
make_invincible()
free_invincible()
random_free_invincible()
make_invincible()
make_invincible()
make_invincible()
free_invincible()
random_free_invincible()
make_invincible()
free_invincible()
random_free_invincible()
make_invincible()
free_invincible()
random_free_invincible()
make_invincible()
make_invincible()
make_invincible()
make_invincible()
free_invincible()
random_free_invincible()
make_invincible()
make_invincible()
free_invincible()
random_free_invincible()
make_invincible()
make_invincible()
make_invincible()
make_invincible()
make_invincible()
make_invincible()
make_invincible()
free_invincible()
random_free_invincible()
make_invincible()
make_invincible()
make_invincible()
make_invincible()
make_invincible()
free_invincible()
random_free_invincible()
make_invincible()
free_invincible()
random_free_invincible()
make_invincible()
make_invincible()
make_invincible()
make_invincible()
make_invincible()
make_invincible()
make_invincible()
free_invincible()
random_free_invincible()
make_invincible()
free_invincible()
random_free_invincible()
make_invincible()
make_invincible()
make_invincible()
make_invincible()
make_invincible()
make_invincible()
free_invincible()
random_free_invincible()
make_invincible()
make_invincible()
make_invincible()
make_invincible()
make_invincible()
make_invincible()
make_invincible()
make_invincible()
make_invincible()
make_invincible()
make_invincible()
make_invincible()
make_invincible()
make_invincible()
make_invincible()
make_invincible()
make_invincible()
make_invincible()
make_invincible()
make_invincible()
make_invincible()
make_invincible()
make_invincible()
make_invincible()
make_invincible()
make_invincible()
make_invincible()
make_invincible()
make_invincible()
make_invincible()
make_invincible()
make_invincible()
make_invincible()
make_invincible()
make_invincible()
make_invincible()
make_invincible()
make_invincible()
make_invincible()
make_invincible()
make_invincible()
make_invincible()
make_invincible()
make_invincible()
make_invincible()
make_invincible()
make_invincible()
make_invincible()
make_invincible()
make_invincible()
make_invincible()
make_invincible()
make_invincible()
make_invincible()
make_invincible()
make_invincible()
make_invincible()
make_invincible()
make_invincible()
make_invincible()
make_invincible()
make_invincible()
make_invincible()
make_invincible()
make_invincible()
make_invincible()
make_invincible()
make_invincible()
make_invincible()
make_invincible()
make_invincible()
make_invincible()
make_invincible()
make_invincible()
make_invincible()
make_invincible()
free_invincible()
random_free_invincible()
make_invincible()
make_invincible()
make_invincible()
make_invincible()
make_invincible()
make_invincible()
make_invincible()
make_invincible()
make_invincible()
make_invincible()
make_invincible()
make_invincible()
make_invincible()
make_invincible()
make_invincible()
make_invincible()
make_invincible()
make_invincible()
make_invincible()
make_invincible()
make_invincible()
make_invincible()
make_invincible()
make_invincible()
make_invincible()
make_invincible()
make_invincible()
make_invincible()
make_invincible()
make_invincible()
make_invincible()
make_invincible()
make_invincible()
make_invincible()
make_invincible()
make_invincible()
free_invincible()
random_free_invincible()
make_invincible()
free_invincible()
random_free_invincible()
make_invincible()
free_invincible()
random_free_invincible()
make_invincible()
make_invincible()
make_invincible()
free_invincible()
random_free_invincible()
make_invincible()
make_invincible()
free_invincible()
random_free_invincible()
make_invincible()
make_invincible()
free_invincible()
random_free_invincible()
free_invincible()
random_free_invincible()
make_invincible()
free_invincible()
random_free_invincible()
make_invincible()
make_invincible()
make_invincible()
make_invincible()
make_invincible()
make_invincible()
free_invincible()
random_free_invincible()
make_invincible()
make_invincible()
make_invincible()
make_invincible()
make_invincible()
make_invincible()
make_invincible()
make_invincible()
make_invincible()
make_invincible()
make_invincible()
make_invincible()
free_invincible()
random_free_invincible()
make_invincible()
free_invincible()
random_free_invincible()
make_invincible()
make_invincible()
make_invincible()
make_invincible()
make_invincible()
make_invincible()
make_invincible()
make_invincible()
free_invincible()
random_free_invincible()
make_invincible()
make_invincible()
free_invincible()
random_free_invincible()
make_invincible()
free_invincible()
random_free_invincible()
make_invincible()
free_invincible()
random_free_invincible()
make_invincible()
free_invincible()
random_free_invincible()
make_invincible()
make_invincible()
free_invincible()
random_free_invincible()
make_invincible()
free_invincible()
random_free_invincible()
make_invincible()
free_invincible()
random_free_invincible()
make_invincible()
make_invincible()
free_invincible()
random_free_invincible()
make_invincible()
make_invincible()
free_invincible()
random_free_invincible()
make_invincible()
free_invincible()
random_free_invincible()
make_invincible()
make_invincible()
free_invincible()
random_free_invincible()
make_invincible()
free_invincible()
random_free_invincible()
make_invincible()
make_invincible()
free_invincible()
random_free_invincible()
make_invincible()
make_invincible()
make_invincible()
make_invincible()
free_invincible()
random_free_invincible()
free_invincible()
random_free_invincible()
free_invincible()
random_free_invincible()
free_invincible()
random_free_invincible()
make_invincible()
make_invincible()
make_invincible()
make_invincible()
make_invincible()
free_invincible()
random_free_invincible()
make_invincible()
free_invincible()
random_free_invincible()
make_invincible()
make_invincible()
make_invincible()
make_invincible()
free_invincible()
random_free_invincible()
make_invincible()
make_invincible()
make_invincible()
make_invincible()
make_invincible()
make_invincible()
make_invincible()
free_invincible()
random_free_invincible()
make_invincible()
make_invincible()
make_invincible()
free_invincible()
random_free_invincible()
make_invincible()
make_invincible()
free_invincible()
random_free_invincible()
make_invincible()
make_invincible()
make_invincible()
free_invincible()
random_free_invincible()
make_invincible()
free_invincible()
random_free_invincible()
make_invincible()
make_invincible()
make_invincible()
free_invincible()
random_free_invincible()
make_invincible()
make_invincible()
make_invincible()
make_invincible()
make_invincible()
make_invincible()
make_invincible()
free_invincible()
random_free_invincible()
make_invincible()
make_invincible()
make_invincible()
make_invincible()
free_invincible()
random_free_invincible()
make_invincible()
free_invincible()
random_free_invincible()
make_invincible()
free_invincible()
random_free_invincible()
make_invincible()
make_invincible()
make_invincible()
make_invincible()
make_invincible()
make_invincible()
make_invincible()
make_invincible()
make_invincible()
free_invincible()
random_free_invincible()
make_invincible()
free_invincible()
random_free_invincible()
make_invincible()
free_invincible()
random_free_invincible()
make_invincible()
make_invincible()
free_invincible()
random_free_invincible()
make_invincible()
make_invincible()
make_invincible()
free_invincible()
random_free_invincible()
free_invincible()
random_free_invincible()
free_invincible()
random_free_invincible()
make_invincible()
free_invincible()
random_free_invincible()
make_invincible()
free_invincible()
random_free_invincible()
make_invincible()
free_invincible()
random_free_invincible()
make_invincible()
free_invincible()
random_free_invincible()
make_invincible()
free_invincible()
random_free_invincible()
make_invincible()
free_invincible()
random_free_invincible()
make_invincible()
make_invincible()
free_invincible()
random_free_invincible()
make_invincible()
make_invincible()
free_invincible()
random_free_invincible()
make_invincible()
free_invincible()
random_free_invincible()
make_invincible()
free_invincible()
random_free_invincible()
make_invincible()
free_invincible()
random_free_invincible()
make_invincible()
free_invincible()
random_free_invincible()
make_invincible()
make_invincible()
make_invincible()
make_invincible()
make_invincible()
make_invincible()
make_invincible()
make_invincible()
make_invincible()
make_invincible()
make_invincible()
make_invincible()
make_invincible()
make_invincible()
make_invincible()
make_invincible()
make_invincible()
make_invincible()
make_invincible()
make_invincible()
make_invincible()
make_invincible()
make_invincible()
make_invincible()
make_invincible()
make_invincible()
make_invincible()
make_invincible()
make_invincible()
make_invincible()
make_invincible()
make_invincible()
make_invincible()
make_invincible()
make_invincible()
make_invincible()
make_invincible()
make_invincible()
make_invincible()
make_invincible()
make_invincible()
make_invincible()
make_invincible()
make_invincible()
make_invincible()
make_invincible()
make_invincible()
make_invincible()
[...]
cpu2_L1I WRITE        ACCESS:          0 HIT:          0 MISS:          0
cpu2_L1I TRANSLATION  ACCESS:          0 HIT:          0 MISS:          0
cpu2_L1I PREFETCH REQUESTED:          0 ISSUED:          0 USEFUL:          0 USELESS:          0
cpu2_L1I AVERAGE MISS LATENCY: 1683 cycles
cpu2_L1I TOTAL        ACCESS:          0 HIT:          0 MISS:          0
cpu2_L1I LOAD         ACCESS:          0 HIT:          0 MISS:          0
cpu2_L1I RFO          ACCESS:          0 HIT:          0 MISS:          0
cpu2_L1I PREFETCH     ACCESS:          0 HIT:          0 MISS:          0
cpu2_L1I WRITE        ACCESS:          0 HIT:          0 MISS:          0
cpu2_L1I TRANSLATION  ACCESS:          0 HIT:          0 MISS:          0
cpu2_L1I PREFETCH REQUESTED:          0 ISSUED:          0 USEFUL:          0 USELESS:          0
cpu2_L1I AVERAGE MISS LATENCY: 1683 cycles
cpu2_L2C TOTAL        ACCESS:          0 HIT:          0 MISS:          0
cpu2_L2C LOAD         ACCESS:          0 HIT:          0 MISS:          0
cpu2_L2C RFO          ACCESS:          0 HIT:          0 MISS:          0
cpu2_L2C PREFETCH     ACCESS:          0 HIT:          0 MISS:          0
cpu2_L2C WRITE        ACCESS:          0 HIT:          0 MISS:          0
cpu2_L2C TRANSLATION  ACCESS:          0 HIT:          0 MISS:          0
cpu2_L2C PREFETCH REQUESTED:          0 ISSUED:          0 USEFUL:          0 USELESS:          0
cpu2_L2C AVERAGE MISS LATENCY: 4827 cycles
cpu2_L2C TOTAL        ACCESS:          0 HIT:          0 MISS:          0
cpu2_L2C LOAD         ACCESS:          0 HIT:          0 MISS:          0
cpu2_L2C RFO          ACCESS:          0 HIT:          0 MISS:          0
cpu2_L2C PREFETCH     ACCESS:          0 HIT:          0 MISS:          0
cpu2_L2C WRITE        ACCESS:          0 HIT:          0 MISS:          0
cpu2_L2C TRANSLATION  ACCESS:          0 HIT:          0 MISS:          0
cpu2_L2C PREFETCH REQUESTED:          0 ISSUED:          0 USEFUL:          0 USELESS:          0
cpu2_L2C AVERAGE MISS LATENCY: 4827 cycles
cpu2_L2C TOTAL        ACCESS:     560096 HIT:     279775 MISS:     280321
cpu2_L2C LOAD         ACCESS:     432595 HIT:     216201 MISS:     216394
cpu2_L2C RFO          ACCESS:      52269 HIT:      25951 MISS:      26318
cpu2_L2C PREFETCH     ACCESS:          0 HIT:          0 MISS:          0
cpu2_L2C WRITE        ACCESS:        670 HIT:        366 MISS:        304
cpu2_L2C TRANSLATION  ACCESS:      74562 HIT:      37257 MISS:      37305
cpu2_L2C PREFETCH REQUESTED:          0 ISSUED:          0 USEFUL:          0 USELESS:          0
cpu2_L2C AVERAGE MISS LATENCY: 4827 cycles
cpu2_L2C TOTAL        ACCESS:          0 HIT:          0 MISS:          0
cpu2_L2C LOAD         ACCESS:          0 HIT:          0 MISS:          0
cpu2_L2C RFO          ACCESS:          0 HIT:          0 MISS:          0
cpu2_L2C PREFETCH     ACCESS:          0 HIT:          0 MISS:          0
cpu2_L2C WRITE        ACCESS:          0 HIT:          0 MISS:          0
cpu2_L2C TRANSLATION  ACCESS:          0 HIT:          0 MISS:          0
cpu2_L2C PREFETCH REQUESTED:          0 ISSUED:          0 USEFUL:          0 USELESS:          0
cpu2_L2C AVERAGE MISS LATENCY: 4827 cycles
cpu2_STLB TOTAL        ACCESS:          0 HIT:          0 MISS:          0
cpu2_STLB LOAD         ACCESS:          0 HIT:          0 MISS:          0
cpu2_STLB RFO          ACCESS:          0 HIT:          0 MISS:          0
cpu2_STLB PREFETCH     ACCESS:          0 HIT:          0 MISS:          0
cpu2_STLB WRITE        ACCESS:          0 HIT:          0 MISS:          0
cpu2_STLB TRANSLATION  ACCESS:          0 HIT:          0 MISS:          0
cpu2_STLB PREFETCH REQUESTED:          0 ISSUED:          0 USEFUL:          0 USELESS:          0
cpu2_STLB AVERAGE MISS LATENCY: 1326 cycles
cpu2_STLB TOTAL        ACCESS:          0 HIT:          0 MISS:          0
cpu2_STLB LOAD         ACCESS:          0 HIT:          0 MISS:          0
cpu2_STLB RFO          ACCESS:          0 HIT:          0 MISS:          0
cpu2_STLB PREFETCH     ACCESS:          0 HIT:          0 MISS:          0
cpu2_STLB WRITE        ACCESS:          0 HIT:          0 MISS:          0
cpu2_STLB TRANSLATION  ACCESS:          0 HIT:          0 MISS:          0
cpu2_STLB PREFETCH REQUESTED:          0 ISSUED:          0 USEFUL:          0 USELESS:          0
cpu2_STLB AVERAGE MISS LATENCY: 1326 cycles
cpu2_STLB TOTAL        ACCESS:     299628 HIT:     149806 MISS:     149822
cpu2_STLB LOAD         ACCESS:     299628 HIT:     149806 MISS:     149822
cpu2_STLB RFO          ACCESS:          0 HIT:          0 MISS:          0
cpu2_STLB PREFETCH     ACCESS:          0 HIT:          0 MISS:          0
cpu2_STLB WRITE        ACCESS:          0 HIT:          0 MISS:          0
cpu2_STLB TRANSLATION  ACCESS:          0 HIT:          0 MISS:          0
cpu2_STLB PREFETCH REQUESTED:          0 ISSUED:          0 USEFUL:          0 USELESS:          0
cpu2_STLB AVERAGE MISS LATENCY: 1326 cycles
cpu2_STLB TOTAL        ACCESS:          0 HIT:          0 MISS:          0
cpu2_STLB LOAD         ACCESS:          0 HIT:          0 MISS:          0
cpu2_STLB RFO          ACCESS:          0 HIT:          0 MISS:          0
cpu2_STLB PREFETCH     ACCESS:          0 HIT:          0 MISS:          0
cpu2_STLB WRITE        ACCESS:          0 HIT:          0 MISS:          0
cpu2_STLB TRANSLATION  ACCESS:          0 HIT:          0 MISS:          0
cpu2_STLB PREFETCH REQUESTED:          0 ISSUED:          0 USEFUL:          0 USELESS:          0
cpu2_STLB AVERAGE MISS LATENCY: 1326 cycles
cpu3_DTLB TOTAL        ACCESS:          0 HIT:          0 MISS:          0
cpu3_DTLB LOAD         ACCESS:          0 HIT:          0 MISS:          0
cpu3_DTLB RFO          ACCESS:          0 HIT:          0 MISS:          0
cpu3_DTLB PREFETCH     ACCESS:          0 HIT:          0 MISS:          0
cpu3_DTLB WRITE        ACCESS:          0 HIT:          0 MISS:          0
cpu3_DTLB TRANSLATION  ACCESS:          0 HIT:          0 MISS:          0
cpu3_DTLB PREFETCH REQUESTED:          0 ISSUED:          0 USEFUL:          0 USELESS:          0
cpu3_DTLB AVERAGE MISS LATENCY: 320.5 cycles
cpu3_DTLB TOTAL        ACCESS:          0 HIT:          0 MISS:          0
cpu3_DTLB LOAD         ACCESS:          0 HIT:          0 MISS:          0
cpu3_DTLB RFO          ACCESS:          0 HIT:          0 MISS:          0
cpu3_DTLB PREFETCH     ACCESS:          0 HIT:          0 MISS:          0
cpu3_DTLB WRITE        ACCESS:          0 HIT:          0 MISS:          0
cpu3_DTLB TRANSLATION  ACCESS:          0 HIT:          0 MISS:          0
cpu3_DTLB PREFETCH REQUESTED:          0 ISSUED:          0 USEFUL:          0 USELESS:          0
cpu3_DTLB AVERAGE MISS LATENCY: 320.5 cycles
cpu3_DTLB TOTAL        ACCESS:          0 HIT:          0 MISS:          0
cpu3_DTLB LOAD         ACCESS:          0 HIT:          0 MISS:          0
cpu3_DTLB RFO          ACCESS:          0 HIT:          0 MISS:          0
cpu3_DTLB PREFETCH     ACCESS:          0 HIT:          0 MISS:          0
cpu3_DTLB WRITE        ACCESS:          0 HIT:          0 MISS:          0
cpu3_DTLB TRANSLATION  ACCESS:          0 HIT:          0 MISS:          0
cpu3_DTLB PREFETCH REQUESTED:          0 ISSUED:          0 USEFUL:          0 USELESS:          0
cpu3_DTLB AVERAGE MISS LATENCY: 320.5 cycles
cpu3_DTLB TOTAL        ACCESS:     729984 HIT:     248279 MISS:     481705
cpu3_DTLB LOAD         ACCESS:     729984 HIT:     248279 MISS:     481705
cpu3_DTLB RFO          ACCESS:          0 HIT:          0 MISS:          0
cpu3_DTLB PREFETCH     ACCESS:          0 HIT:          0 MISS:          0
cpu3_DTLB WRITE        ACCESS:          0 HIT:          0 MISS:          0
cpu3_DTLB TRANSLATION  ACCESS:          0 HIT:          0 MISS:          0
cpu3_DTLB PREFETCH REQUESTED:          0 ISSUED:          0 USEFUL:          0 USELESS:          0
cpu3_DTLB AVERAGE MISS LATENCY: 320.5 cycles
cpu3_ITLB TOTAL        ACCESS:          0 HIT:          0 MISS:          0
cpu3_ITLB LOAD         ACCESS:          0 HIT:          0 MISS:          0
cpu3_ITLB RFO          ACCESS:          0 HIT:          0 MISS:          0
cpu3_ITLB PREFETCH     ACCESS:          0 HIT:          0 MISS:          0
cpu3_ITLB WRITE        ACCESS:          0 HIT:          0 MISS:          0
cpu3_ITLB TRANSLATION  ACCESS:          0 HIT:          0 MISS:          0
cpu3_ITLB PREFETCH REQUESTED:          0 ISSUED:          0 USEFUL:          0 USELESS:          0
cpu3_ITLB AVERAGE MISS LATENCY: 536.9 cycles
cpu3_ITLB TOTAL        ACCESS:          0 HIT:          0 MISS:          0
cpu3_ITLB LOAD         ACCESS:          0 HIT:          0 MISS:          0
cpu3_ITLB RFO          ACCESS:          0 HIT:          0 MISS:          0
cpu3_ITLB PREFETCH     ACCESS:          0 HIT:          0 MISS:          0
cpu3_ITLB WRITE        ACCESS:          0 HIT:          0 MISS:          0
cpu3_ITLB TRANSLATION  ACCESS:          0 HIT:          0 MISS:          0
cpu3_ITLB PREFETCH REQUESTED:          0 ISSUED:          0 USEFUL:          0 USELESS:          0
cpu3_ITLB AVERAGE MISS LATENCY: 536.9 cycles
cpu3_ITLB TOTAL        ACCESS:          0 HIT:          0 MISS:          0
cpu3_ITLB LOAD         ACCESS:          0 HIT:          0 MISS:          0
cpu3_ITLB RFO          ACCESS:          0 HIT:          0 MISS:          0
cpu3_ITLB PREFETCH     ACCESS:          0 HIT:          0 MISS:          0
cpu3_ITLB WRITE        ACCESS:          0 HIT:          0 MISS:          0
cpu3_ITLB TRANSLATION  ACCESS:          0 HIT:          0 MISS:          0
cpu3_ITLB PREFETCH REQUESTED:          0 ISSUED:          0 USEFUL:          0 USELESS:          0
cpu3_ITLB AVERAGE MISS LATENCY: 536.9 cycles
cpu3_ITLB TOTAL        ACCESS:      35641 HIT:       8367 MISS:      27274
cpu3_ITLB LOAD         ACCESS:      35641 HIT:       8367 MISS:      27274
cpu3_ITLB RFO          ACCESS:          0 HIT:          0 MISS:          0
cpu3_ITLB PREFETCH     ACCESS:          0 HIT:          0 MISS:          0
cpu3_ITLB WRITE        ACCESS:          0 HIT:          0 MISS:          0
cpu3_ITLB TRANSLATION  ACCESS:          0 HIT:          0 MISS:          0
cpu3_ITLB PREFETCH REQUESTED:          0 ISSUED:          0 USEFUL:          0 USELESS:          0
cpu3_ITLB AVERAGE MISS LATENCY: 536.9 cycles
cpu3_L1D TOTAL        ACCESS:          0 HIT:          0 MISS:          0
cpu3_L1D LOAD         ACCESS:          0 HIT:          0 MISS:          0
cpu3_L1D RFO          ACCESS:          0 HIT:          0 MISS:          0
cpu3_L1D PREFETCH     ACCESS:          0 HIT:          0 MISS:          0
cpu3_L1D WRITE        ACCESS:          0 HIT:          0 MISS:          0
cpu3_L1D TRANSLATION  ACCESS:          0 HIT:          0 MISS:          0
cpu3_L1D PREFETCH REQUESTED:          0 ISSUED:          0 USEFUL:          0 USELESS:          0
cpu3_L1D AVERAGE MISS LATENCY: 1517 cycles
cpu3_L1D TOTAL        ACCESS:          0 HIT:          0 MISS:          0
cpu3_L1D LOAD         ACCESS:          0 HIT:          0 MISS:          0
cpu3_L1D RFO          ACCESS:          0 HIT:          0 MISS:          0
cpu3_L1D PREFETCH     ACCESS:          0 HIT:          0 MISS:          0
cpu3_L1D WRITE        ACCESS:          0 HIT:          0 MISS:          0
cpu3_L1D TRANSLATION  ACCESS:          0 HIT:          0 MISS:          0
cpu3_L1D PREFETCH REQUESTED:          0 ISSUED:          0 USEFUL:          0 USELESS:          0
cpu3_L1D AVERAGE MISS LATENCY: 1517 cycles
cpu3_L1D TOTAL        ACCESS:          0 HIT:          0 MISS:          0
cpu3_L1D LOAD         ACCESS:          0 HIT:          0 MISS:          0
cpu3_L1D RFO          ACCESS:          0 HIT:          0 MISS:          0
cpu3_L1D PREFETCH     ACCESS:          0 HIT:          0 MISS:          0
cpu3_L1D WRITE        ACCESS:          0 HIT:          0 MISS:          0
cpu3_L1D TRANSLATION  ACCESS:          0 HIT:          0 MISS:          0
cpu3_L1D PREFETCH REQUESTED:          0 ISSUED:          0 USEFUL:          0 USELESS:          0
cpu3_L1D AVERAGE MISS LATENCY: 1517 cycles
cpu3_L1D TOTAL        ACCESS:    1317084 HIT:     351624 MISS:     965460
cpu3_L1D LOAD         ACCESS:     600036 HIT:     195821 MISS:     404215
cpu3_L1D RFO          ACCESS:          0 HIT:          0 MISS:          0
cpu3_L1D PREFETCH     ACCESS:          0 HIT:          0 MISS:          0
cpu3_L1D WRITE        ACCESS:     588633 HIT:      91783 MISS:     496850
cpu3_L1D TRANSLATION  ACCESS:     128415 HIT:      64020 MISS:      64395
cpu3_L1D PREFETCH REQUESTED:          0 ISSUED:          0 USEFUL:          0 USELESS:          0
cpu3_L1D AVERAGE MISS LATENCY: 1517 cycles
cpu3_L1I TOTAL        ACCESS:          0 HIT:          0 MISS:          0
cpu3_L1I LOAD         ACCESS:          0 HIT:          0 MISS:          0
cpu3_L1I RFO          ACCESS:          0 HIT:          0 MISS:          0
cpu3_L1I PREFETCH     ACCESS:          0 HIT:          0 MISS:          0
cpu3_L1I WRITE        ACCESS:          0 HIT:          0 MISS:          0
cpu3_L1I TRANSLATION  ACCESS:          0 HIT:          0 MISS:          0
cpu3_L1I PREFETCH REQUESTED:          0 ISSUED:          0 USEFUL:          0 USELESS:          0
cpu3_L1I AVERAGE MISS LATENCY: 1836 cycles
cpu3_L1I TOTAL        ACCESS:          0 HIT:          0 MISS:          0
cpu3_L1I LOAD         ACCESS:          0 HIT:          0 MISS:          0
cpu3_L1I RFO          ACCESS:          0 HIT:          0 MISS:          0
cpu3_L1I PREFETCH     ACCESS:          0 HIT:          0 MISS:          0
cpu3_L1I WRITE        ACCESS:          0 HIT:          0 MISS:          0
cpu3_L1I TRANSLATION  ACCESS:          0 HIT:          0 MISS:          0
cpu3_L1I PREFETCH REQUESTED:          0 ISSUED:          0 USEFUL:          0 USELESS:          0
cpu3_L1I AVERAGE MISS LATENCY: 1836 cycles
cpu3_L1I TOTAL        ACCESS:          0 HIT:          0 MISS:          0
cpu3_L1I LOAD         ACCESS:          0 HIT:          0 MISS:          0
cpu3_L1I RFO          ACCESS:          0 HIT:          0 MISS:          0
cpu3_L1I PREFETCH     ACCESS:          0 HIT:          0 MISS:          0
cpu3_L1I WRITE        ACCESS:          0 HIT:          0 MISS:          0
cpu3_L1I TRANSLATION  ACCESS:          0 HIT:          0 MISS:          0
cpu3_L1I PREFETCH REQUESTED:          0 ISSUED:          0 USEFUL:          0 USELESS:          0
cpu3_L1I AVERAGE MISS LATENCY: 1836 cycles
cpu3_L1I TOTAL        ACCESS:      44397 HIT:      10141 MISS:      34256
cpu3_L1I LOAD         ACCESS:      44397 HIT:      10141 MISS:      34256
cpu3_L1I RFO          ACCESS:          0 HIT:          0 MISS:          0
cpu3_L1I PREFETCH     ACCESS:          0 HIT:          0 MISS:          0
cpu3_L1I WRITE        ACCESS:          0 HIT:          0 MISS:          0
cpu3_L1I TRANSLATION  ACCESS:          0 HIT:          0 MISS:          0
cpu3_L1I PREFETCH REQUESTED:          0 ISSUED:          0 USEFUL:          0 USELESS:          0
cpu3_L1I AVERAGE MISS LATENCY: 1836 cycles
cpu3_L2C TOTAL        ACCESS:          0 HIT:          0 MISS:          0
cpu3_L2C LOAD         ACCESS:          0 HIT:          0 MISS:          0
cpu3_L2C RFO          ACCESS:          0 HIT:          0 MISS:          0
cpu3_L2C PREFETCH     ACCESS:          0 HIT:          0 MISS:          0
cpu3_L2C WRITE        ACCESS:          0 HIT:          0 MISS:          0
cpu3_L2C TRANSLATION  ACCESS:          0 HIT:          0 MISS:          0
cpu3_L2C PREFETCH REQUESTED:          0 ISSUED:          0 USEFUL:          0 USELESS:          0
cpu3_L2C AVERAGE MISS LATENCY: 4353 cycles
cpu3_L2C TOTAL        ACCESS:          0 HIT:          0 MISS:          0
cpu3_L2C LOAD         ACCESS:          0 HIT:          0 MISS:          0
cpu3_L2C RFO          ACCESS:          0 HIT:          0 MISS:          0
cpu3_L2C PREFETCH     ACCESS:          0 HIT:          0 MISS:          0
cpu3_L2C WRITE        ACCESS:          0 HIT:          0 MISS:          0
cpu3_L2C TRANSLATION  ACCESS:          0 HIT:          0 MISS:          0
cpu3_L2C PREFETCH REQUESTED:          0 ISSUED:          0 USEFUL:          0 USELESS:          0
cpu3_L2C AVERAGE MISS LATENCY: 4353 cycles
cpu3_L2C TOTAL        ACCESS:          0 HIT:          0 MISS:          0
cpu3_L2C LOAD         ACCESS:          0 HIT:          0 MISS:          0
cpu3_L2C RFO          ACCESS:          0 HIT:          0 MISS:          0
cpu3_L2C PREFETCH     ACCESS:          0 HIT:          0 MISS:          0
cpu3_L2C WRITE        ACCESS:          0 HIT:          0 MISS:          0
cpu3_L2C TRANSLATION  ACCESS:          0 HIT:          0 MISS:          0
cpu3_L2C PREFETCH REQUESTED:          0 ISSUED:          0 USEFUL:          0 USELESS:          0
cpu3_L2C AVERAGE MISS LATENCY: 4353 cycles
cpu3_L2C TOTAL        ACCESS:     368105 HIT:     182593 MISS:     185512
cpu3_L2C LOAD         ACCESS:     209807 HIT:     104384 MISS:     105423
cpu3_L2C RFO          ACCESS:      92534 HIT:      45868 MISS:      46666
cpu3_L2C PREFETCH     ACCESS:          0 HIT:          0 MISS:          0
cpu3_L2C WRITE        ACCESS:       1623 HIT:        329 MISS:       1294
cpu3_L2C TRANSLATION  ACCESS:      64141 HIT:      32012 MISS:      32129
cpu3_L2C PREFETCH REQUESTED:          0 ISSUED:          0 USEFUL:          0 USELESS:          0
cpu3_L2C AVERAGE MISS LATENCY: 4353 cycles
cpu3_STLB TOTAL        ACCESS:          0 HIT:          0 MISS:          0
cpu3_STLB LOAD         ACCESS:          0 HIT:          0 MISS:          0
cpu3_STLB RFO          ACCESS:          0 HIT:          0 MISS:          0
cpu3_STLB PREFETCH     ACCESS:          0 HIT:          0 MISS:          0
cpu3_STLB WRITE        ACCESS:          0 HIT:          0 MISS:          0
cpu3_STLB TRANSLATION  ACCESS:          0 HIT:          0 MISS:          0
cpu3_STLB PREFETCH REQUESTED:          0 ISSUED:          0 USEFUL:          0 USELESS:          0
cpu3_STLB AVERAGE MISS LATENCY: 1184 cycles
cpu3_STLB TOTAL        ACCESS:          0 HIT:          0 MISS:          0
cpu3_STLB LOAD         ACCESS:          0 HIT:          0 MISS:          0
cpu3_STLB RFO          ACCESS:          0 HIT:          0 MISS:          0
cpu3_STLB PREFETCH     ACCESS:          0 HIT:          0 MISS:          0
cpu3_STLB WRITE        ACCESS:          0 HIT:          0 MISS:          0
cpu3_STLB TRANSLATION  ACCESS:          0 HIT:          0 MISS:          0
cpu3_STLB PREFETCH REQUESTED:          0 ISSUED:          0 USEFUL:          0 USELESS:          0
cpu3_STLB AVERAGE MISS LATENCY: 1184 cycles
cpu3_STLB TOTAL        ACCESS:          0 HIT:          0 MISS:          0
cpu3_STLB LOAD         ACCESS:          0 HIT:          0 MISS:          0
cpu3_STLB RFO          ACCESS:          0 HIT:          0 MISS:          0
cpu3_STLB PREFETCH     ACCESS:          0 HIT:          0 MISS:          0
cpu3_STLB WRITE        ACCESS:          0 HIT:          0 MISS:          0
cpu3_STLB TRANSLATION  ACCESS:          0 HIT:          0 MISS:          0
cpu3_STLB PREFETCH REQUESTED:          0 ISSUED:          0 USEFUL:          0 USELESS:          0
cpu3_STLB AVERAGE MISS LATENCY: 1184 cycles
cpu3_STLB TOTAL        ACCESS:     256742 HIT:     128324 MISS:     128418
cpu3_STLB LOAD         ACCESS:     256742 HIT:     128324 MISS:     128418
cpu3_STLB RFO          ACCESS:          0 HIT:          0 MISS:          0
cpu3_STLB PREFETCH     ACCESS:          0 HIT:          0 MISS:          0
cpu3_STLB WRITE        ACCESS:          0 HIT:          0 MISS:          0
cpu3_STLB TRANSLATION  ACCESS:          0 HIT:          0 MISS:          0
cpu3_STLB PREFETCH REQUESTED:          0 ISSUED:          0 USEFUL:          0 USELESS:          0
cpu3_STLB AVERAGE MISS LATENCY: 1184 cycles

DRAM Statistics

Channel 0 RQ ROW_BUFFER_HIT:     344476
  ROW_BUFFER_MISS:    2166128
 AVG DBUS CONGESTED CYCLE: 3.977
WQ ROW_BUFFER_HIT: Channel 0 
  ROW_BUFFER_MISS:         60
  FULL:       3892
