WARNING: physical memory size is smaller than virtual memory size.

*** ChampSim Multicore Out-of-Order Simulator ***
Warmup Instructions: 200000
Simulation Instructions: 500000
Number of CPUs: 4
Page size: 4096

Off-chip DRAM Size: 4 GiB Channels: 1 Width: 64-bit Data Race: 3200 MT/s
cpu1_L1D
cpu1_L1D
cpu1_L1D
cpu1_L1D
cpu1_L1D
cpu1_L1D
cpu1_L1D
cpu1_L1D
cpu1_L1D
cpu1_L1D
cpu1_L1D
cpu1_L1D
cpu1_L1D
cpu1_L1D
cpu1_L1D
cpu1_L1D
cpu1_L1D
cpu1_L1D
cpu1_L1D
cpu1_L1D
cpu1_L1D
cpu1_L1D
cpu1_L1D
cpu1_L1D
cpu1_L1D
cpu1_L1D
cpu1_L1D
cpu1_L1D
cpu1_L1D
cpu1_L1D
cpu1_L1D
cpu1_L1D
cpu1_L1D
cpu1_L1D
cpu1_L1D
cpu1_L1D
cpu1_L1D
cpu1_L1D
cpu1_L1D
cpu1_L1D
cpu1_L1D
cpu1_L1D
cpu1_L1D
cpu1_L1D
cpu1_L1D
cpu1_L1D
cpu1_L1D
cpu1_L1D
cpu1_L1D
cpu1_L1D
cpu1_L1D
cpu1_L1D
cpu1_L1D
cpu1_L1D
cpu1_L1D
cpu1_L1D
cpu1_L1D
cpu1_L1D
cpu1_L1D
cpu1_L1D
cpu1_L1D
cpu1_L1D
cpu1_L1D
cpu1_L1D
cpu1_L1D
cpu1_L1D
cpu1_L1D
cpu1_L1D
cpu1_L1D
cpu1_L1D
cpu1_L1D
cpu1_L1D
cpu1_L1D
cpu1_L1D
cpu1_L1D
cpu1_L1D
cpu1_L1D
cpu1_L1D
cpu1_L1D
cpu1_L1D
cpu1_L1D
cpu1_L1D
cpu1_L1D
cpu1_L1D
cpu1_L1D
cpu1_L1D
cpu1_L1D
cpu1_L1D
cpu1_L1D
cpu1_L1D
cpu1_L1D
cpu1_L1D
cpu1_L1D
cpu1_L1D
cpu1_L1D
cpu1_L1D
cpu1_L1D
cpu1_L1D
cpu1_L1D
cpu1_L1D
cpu1_L1D
cpu1_L1D
cpu1_L1D
cpu1_L1D
cpu1_L1D
cpu1_L1D
cpu1_L1D
cpu1_L1D
cpu1_L1D
cpu1_L1D
cpu1_L1D
cpu1_L1D
cpu1_L1D
cpu1_L1D
cpu1_L1D
cpu1_L1D
cpu1_L1D
cpu1_L1D
cpu1_L1D
cpu1_L1D
cpu1_L1D
cpu1_L1D
cpu1_L1D
cpu1_L1D
cpu1_L1D
cpu1_L1D
cpu1_L1D
cpu1_L1D
cpu1_L1D
cpu1_L1D
cpu1_L1D
cpu1_L1D
cpu1_L1D
cpu1_L1D
cpu1_L1D
cpu1_L1D
cpu1_L1D
cpu1_L1D
cpu1_L1D
cpu1_L1D
cpu1_L1D
cpu1_L1D
cpu1_L1D
cpu1_L1D
cpu1_L1D
cpu1_L1D
cpu1_L1D
cpu1_L1D
cpu1_L1D
cpu1_L1D
cpu1_L1D
cpu1_L1D
cpu1_L1D
cpu1_L1D
cpu1_L1D
cpu1_L1D
cpu1_L1D
cpu1_L1D
cpu1_L1D
cpu1_L1D
cpu1_L1D
cpu1_L1D
cpu1_L1D
cpu1_L1D
cpu1_L1D
cpu1_L1D
cpu1_L1D
cpu1_L1D
cpu1_L1D
cpu1_L1D
cpu1_L1D
cpu1_L1D
cpu1_L1D
cpu1_L1D
cpu1_L1D
cpu1_L1D
cpu1_L1D
cpu1_DTLB
cpu1_L1D
cpu1_L1D
cpu1_L1D
cpu1_L1D
cpu1_L1D
cpu1_L1D
cpu1_L1D
cpu1_DTLB
cpu1_L1D
cpu1_L1D
cpu1_L1D
cpu1_L1D
cpu1_L1D
cpu1_L1D
cpu1_L1D
cpu1_L1D
cpu1_L1D
cpu1_L1D
cpu1_L1D
cpu1_L1D
cpu1_L1D
cpu1_L1D
cpu1_L1D
cpu1_L1D
cpu1_L1D
cpu1_L1D
cpu1_L1D
cpu1_L1D
cpu1_L1D
cpu1_L1D
cpu1_L1D
cpu1_L1D
cpu1_L1D
cpu1_L1D
cpu1_L1D
cpu1_L1D
cpu1_L1D
cpu1_L1D
cpu1_L1D
cpu1_L1D
cpu1_L1D
cpu1_L1D
cpu1_L1D
cpu1_L1D
cpu1_L1D
cpu1_L1D
cpu1_L1D
cpu1_L1D
cpu1_L1D
cpu1_L1D
cpu1_L1D
cpu1_L1D
cpu1_L1D
cpu1_L1D
cpu1_L1D
cpu1_L1D
cpu1_L1D
cpu1_L1D
cpu1_L1D
cpu1_L1D
cpu1_L1D
cpu1_L1D
cpu1_L1D
cpu1_L1D
cpu1_L1D
cpu1_L1D
cpu1_L1D
cpu1_L1D
cpu1_L1D
cpu1_L1D
cpu1_L1D
cpu1_L1D
cpu1_L1D
cpu1_L1D
cpu1_L1D
cpu1_L1D
cpu1_L1D
cpu1_L1D
cpu1_L1D
cpu1_L1D
cpu1_L1D
cpu1_L1D
cpu1_L1D
cpu1_L1D
cpu1_L1D
cpu1_L1D
cpu1_L1D
cpu1_L1D
cpu1_L1D
cpu1_L1D
cpu1_L1D
cpu1_L1D
cpu1_L1D
cpu1_L1D
cpu1_L1D
cpu1_L1D
cpu1_L1D
cpu1_L1D
cpu1_L1D
cpu1_L1D
cpu1_L1D
cpu1_L1D
cpu1_L1D
cpu1_L1D
cpu1_L1D
cpu1_L1D
cpu1_L1D
cpu1_L1D
cpu1_L1D
cpu1_L1D
cpu1_L1D
cpu1_L1D
cpu1_L1D
cpu1_L1D
cpu1_L1D
cpu1_L1D
cpu1_L1D
cpu1_L1D
cpu1_L1D
cpu1_L1D
cpu1_L1D
cpu1_L1D
cpu1_L1D
cpu1_L1D
cpu1_L1D
cpu1_L1D
cpu1_L1D
cpu1_L1D
cpu1_L1D
cpu1_L1D
cpu1_L1D
cpu1_L1D
cpu1_L1D
cpu1_L1D
cpu1_L1D
cpu1_L1D
cpu1_L1D
cpu1_L1D
cpu1_L1D
cpu1_L1D
cpu1_L1D
cpu1_L1D
cpu1_L1D
cpu1_L1D
cpu1_L1D
cpu1_DTLB
cpu1_L1D
cpu1_L1D
cpu1_L1D
cpu1_L1D
cpu1_L1D
cpu1_L1D
cpu1_L1D
cpu1_L1D
cpu1_L1D
cpu1_L1D
cpu1_L1D
cpu1_L1D
cpu1_L1D
cpu1_L1D
cpu1_L1D
cpu1_L1D
cpu1_L1D
cpu1_L1D
cpu1_L1D
cpu1_L1D
cpu1_L1D
cpu1_L1D
cpu1_L1D
cpu1_L1D
cpu1_L1D
cpu1_L1D
cpu1_L1D
cpu1_L1D
cpu1_L1D
cpu1_L1D
cpu1_L1D
cpu1_L1D
cpu1_L1D
cpu1_L1D
cpu1_L1D
cpu1_L1D
cpu1_L1D
cpu1_L1D
cpu1_L1D
cpu1_L1D
cpu1_L1D
cpu1_L1D
cpu1_L1D
cpu1_L1D
cpu1_L1D
cpu1_L1D
cpu1_L1D
cpu1_L1D
cpu1_L1D
cpu1_L1D
cpu1_L1D
cpu1_L1D
cpu1_L1D
cpu1_L1D
cpu1_L1D
cpu1_L1D
cpu1_L1D
cpu1_L1D
cpu1_L1D
cpu1_L1D
cpu1_L1D
cpu1_L1D
cpu1_L1D
cpu1_L1D
cpu1_L1D
cpu1_L1D
cpu1_L1D
cpu1_L1D
cpu1_L1D
cpu1_L1D
cpu1_L1D
cpu1_L1D
cpu1_L1D
cpu1_L1D
cpu1_L1D
cpu1_L1D
cpu1_L1D
cpu1_L1D
cpu1_L1D
cpu1_L1D
cpu1_L1D
cpu1_L1D
cpu1_L1D
cpu1_L1D
cpu1_L1D
cpu1_L1D
cpu1_L1D
cpu1_L1D
cpu1_L1D
cpu1_L1D
cpu1_L1D
cpu1_L1D
cpu1_L1D
cpu1_L1D
cpu1_L1D
cpu1_L1D
cpu1_L1D
cpu1_L1D
cpu1_L1D
cpu1_L1D
cpu1_L1D
cpu1_L1D
cpu1_L1D
cpu1_L1D
cpu1_L1D
cpu1_L1D
cpu1_L1D
cpu1_L1D
cpu1_L1D
cpu1_L1D
cpu1_L1D
cpu1_L1D
cpu1_L1D
cpu1_L1D
cpu1_L1D
cpu1_L1D
cpu1_L1D
cpu1_L1D
cpu1_L1D
cpu1_L1D
cpu1_L1D
cpu1_L1D
cpu1_L1D
cpu1_L1D
cpu1_L1D
cpu1_L1D
cpu1_L1D
cpu1_L1D
cpu1_DTLB
cpu1_L1D
cpu1_L1D
cpu1_L1D
cpu1_L1D
cpu1_L1D
cpu1_L1D
cpu1_L1D
cpu1_L1D
cpu1_L1D
cpu1_L1D
cpu1_L1D
cpu1_L1D
cpu1_L1D
cpu1_L1D
cpu1_L1D
cpu1_L1D
cpu1_L1D
cpu1_L1D
cpu1_L1D
cpu1_L1D
cpu1_L1D
cpu1_L1D
cpu1_L1D
cpu1_L1D
cpu1_L1D
cpu1_L1D
cpu1_L1D
cpu1_L1D
cpu1_L1D
cpu1_L1D
cpu1_L1D
cpu1_L1D
cpu1_L1D
cpu1_L1D
cpu1_L1D
cpu1_L1D
cpu1_L1D
cpu1_L1D
cpu1_L1D
cpu1_L1D
cpu1_L1D
cpu1_L1D
cpu1_L1D
cpu1_L1D
cpu1_L1D
cpu1_L1D
cpu1_L1D
cpu1_L1D
cpu1_L1D
cpu1_L1D
cpu1_L1D
cpu1_L1D
cpu1_L1D
cpu1_L1D
cpu1_L1D
cpu1_L1D
cpu1_L1D
cpu1_L1D
cpu1_L1D
cpu1_L1D
cpu1_L1D
cpu1_L1D
cpu1_L1D
cpu1_L1D
cpu1_L1D
cpu1_L1D
cpu1_L1D
cpu1_L1D
cpu1_L1D
cpu1_L1D
cpu1_L1D
cpu1_L1D
cpu1_L1D
cpu1_L1D
cpu1_L1D
cpu1_L1D
cpu1_L1D
cpu1_L1D
cpu1_L1D
cpu1_L1D
cpu1_L1D
cpu1_L1D
cpu1_L1D
cpu1_L1D
cpu1_L1D
cpu1_L1D
cpu1_L1D
cpu1_L1D
cpu1_L1D
cpu1_L1D
cpu1_L1D
cpu1_L1D
cpu1_L1D
cpu1_L1D
cpu1_L1D
cpu1_L1D
cpu1_L1D
cpu1_L1D
cpu1_L1D
cpu1_L1D
cpu1_L1D
cpu1_L1D
cpu1_L1D
cpu1_L1D
cpu1_L1D
cpu1_L1D
cpu1_L1D
cpu1_L1D
cpu1_L1D
cpu1_L1D
cpu1_L1D
cpu1_L1D
cpu1_L1D
cpu1_L1D
cpu1_L1D
cpu1_L1D
cpu1_L1D
cpu1_L1D
cpu1_L1D
cpu1_L1D
cpu1_L1D
cpu1_L1D
cpu1_L1D
cpu1_DTLB
cpu1_L1D
cpu1_L1D
cpu1_L1D
cpu1_L1D
cpu1_L1D
cpu1_L1D
cpu1_L1D
cpu1_L1D
cpu1_L1D
cpu1_L1D
cpu1_L1D
cpu1_L1D
cpu1_L1D
cpu1_L1D
cpu1_L1D
cpu1_L1D
cpu1_L1D
cpu1_L1D
cpu1_L1D
cpu1_L1D
cpu1_L1D
cpu1_L1D
cpu1_L1D
cpu1_L1D
cpu1_L1D
cpu1_L1D
cpu1_L1D
cpu1_L1D
cpu1_L1D
cpu1_L1D
cpu1_L1D
cpu1_L1D
cpu1_L1D
cpu1_L1D
cpu1_L1D
cpu1_L1D
cpu1_L1D
cpu1_L1D
cpu1_L1D
cpu1_L1D
cpu1_L1D
cpu1_L1D
cpu1_L1D
cpu1_L1D
cpu1_L1D
cpu1_L1D
cpu1_L1D
cpu1_L1D
cpu1_L1D
cpu1_L1D
cpu1_L1D
cpu1_L1D
cpu1_L1D
cpu1_L1D
cpu1_L1D
cpu1_L1D
cpu1_L1D
cpu1_L1D
cpu1_L1D
cpu1_L1D
cpu1_L1D
cpu1_L1D
cpu1_L1D
cpu1_L1D
cpu1_L1D
cpu1_L1D
cpu1_L1D
cpu1_L1D
cpu1_L1D
cpu1_L1D
cpu1_L1D
cpu1_L1D
cpu1_L1D
cpu1_L1D
cpu1_L1D
cpu1_L1D
cpu1_L1D
cpu1_L1D
cpu1_L1D
cpu1_L1D
cpu1_L1D
cpu1_L1D
cpu1_L1D
cpu1_L1D
cpu1_L1D
cpu1_L1D
cpu1_L1D
cpu1_DTLB
cpu1_L1D
cpu1_L1D
cpu1_L1D
cpu1_L1D
cpu1_L1D
cpu1_L1D
cpu1_L1D
cpu1_L1D
cpu1_L1D
cpu1_L1D
cpu1_L1D
cpu1_L1D
cpu1_L1D
cpu1_L1D
cpu1_L1D
cpu1_L1D
cpu1_L1D
cpu1_L1D
cpu1_L1D
cpu1_L1D
cpu1_L1D
cpu1_L1D
cpu1_L1D
cpu1_L1D
cpu1_L1D
cpu1_L1D
cpu1_L1D
cpu1_L1D
cpu1_L1D
cpu1_L1D
cpu1_L1D
cpu1_L1D
cpu1_L1D
cpu1_L1D
cpu1_L1D
cpu1_L1D
cpu1_L1D
cpu1_L1D
cpu1_L1D
cpu1_L1D
cpu1_L1D
cpu1_L1D
cpu1_L1D
cpu1_L1D
cpu1_L1D
cpu1_L1D
cpu1_L1D
cpu1_L1D
cpu1_L1D
cpu1_L1D
cpu1_L1D
cpu1_L1D
cpu1_L1D
cpu1_L1D
cpu1_L1D
cpu1_L1D
cpu1_L1D
cpu1_L1D
cpu1_L1D
cpu1_L1D
cpu1_L1D
cpu1_L1D
cpu1_L1D
cpu1_L1D
cpu1_L1D
cpu1_L1D
cpu1_L1D
cpu1_L1D
cpu1_L1D
cpu1_L1D
cpu1_L1D
cpu1_L1D
cpu1_L1D
cpu1_L1D
cpu1_L1D
cpu1_L1D
cpu1_L1D
cpu1_L1D
cpu1_L1D
cpu1_L1D
cpu1_L1D
cpu1_L1D
cpu1_L1D
cpu1_L1D
cpu1_L1D
cpu1_L1D
cpu1_L1D
cpu1_L1D
cpu1_L1D
cpu1_L1D
cpu1_L1D
cpu1_L1D
cpu1_L1D
cpu1_L1D
cpu1_L1D
cpu1_L1D
cpu1_L1D
cpu1_L1D
cpu1_L1D
cpu1_L1D
cpu1_L1D
cpu1_L1D
cpu1_L1D
cpu1_L1D
cpu1_L1D
cpu1_L1D
cpu1_L1D
cpu1_L1D
cpu1_L1D
cpu1_L1D
cpu1_L1D
cpu1_L1D
cpu1_L1D
cpu1_L1D
cpu1_L1D
cpu1_L1D
cpu1_L1D
cpu1_L1D
cpu1_L1D
cpu1_L1D
cpu1_L1D
cpu1_L1D
cpu1_L1D
cpu1_L1D
cpu1_L1D
cpu1_L1D
cpu1_L1D
cpu1_L1D
cpu1_L1D
cpu1_L1D
cpu1_L1D
cpu1_L1D
cpu1_L1D
cpu1_L1D
cpu1_L1D
cpu1_L1D
cpu1_L1D
cpu1_L1D
cpu1_L1D
cpu1_L1D
cpu1_L1D
cpu1_L1D
cpu1_L1D
cpu1_L1D
cpu1_L1D
cpu1_L1D
cpu1_L1D
cpu1_L1D
cpu1_L1D
cpu1_L1D
cpu1_L1D
cpu1_L1D
cpu1_L1D
cpu1_L1D
cpu1_L1D
cpu1_L1D
cpu1_L1D
cpu1_L1D
cpu1_L1D
cpu1_L1D
cpu1_L1D
cpu1_L1D
cpu1_L1D
cpu1_L1D
cpu1_L1D
cpu1_L1D
cpu1_L1D
cpu1_L1D
cpu1_L1D
cpu1_L1D
cpu1_L1D
cpu1_L1D
cpu1_L1D
cpu1_L1D
cpu1_L1D
cpu1_L1D
cpu1_L1D
cpu1_L1D
cpu1_L1D
cpu1_L1D
cpu1_L1D
cpu1_L1D
cpu1_L1D
cpu1_L1D
cpu1_L1D
cpu1_L1D
cpu1_L1D
cpu1_L1D
cpu1_L1D
cpu1_L1D
cpu1_L1D
cpu1_L1D
cpu1_L1D
cpu1_L1D
cpu1_L1D
cpu1_L1D
cpu1_L1D
cpu1_L1D
cpu1_L1D
cpu1_L1D
cpu1_L1D
cpu1_L1D
cpu1_L1D
cpu1_L1D
cpu1_L1D
cpu1_L1D
cpu1_L1D
cpu1_L1D
cpu1_L1D
cpu1_L1D
cpu1_L1D
cpu1_L1D
cpu1_L1D
cpu1_L1D
cpu1_L1D
cpu1_L1D
cpu1_L1D
cpu1_L1D
cpu1_L1D
cpu1_L1D
cpu1_L1D
cpu1_L1D
cpu1_L1D
cpu1_L1D
cpu1_L1D
cpu1_L1D
cpu1_L1D
cpu1_L1D
cpu1_L1D
cpu1_L1D
cpu1_L1D
cpu1_L1D
cpu1_L1D
cpu1_L1D
cpu1_DTLB
cpu1_L1D
cpu1_L1D
cpu1_L1D
cpu1_L1D
cpu1_L1D
cpu1_L1D
cpu1_L1D
cpu1_L1D
cpu1_L1D
cpu1_L1D
cpu1_L1D
cpu1_L1D
cpu1_L1D
cpu1_L1D
cpu1_L1D
cpu1_L1D
cpu1_L1D
cpu1_L1D
cpu1_L1D
cpu1_L1D
cpu1_L1D
cpu1_L1D
cpu1_L1D
cpu1_L1D
cpu1_L1D
cpu1_L1D
cpu1_L1D
cpu1_L1D
cpu1_L1D
cpu1_L1D
cpu1_L1D
cpu1_L1D
cpu1_L1D
cpu1_L1D
cpu1_L1D
cpu1_L1D
cpu1_L1D
cpu1_L1D
cpu1_L1D
cpu1_L1D
cpu1_L1D
cpu1_L1D
cpu1_L1D
cpu1_L1D
cpu1_L1D
cpu1_DTLB
cpu1_DTLB
cpu1_L1D
cpu1_L1D
cpu1_L1D
cpu1_L1D
cpu1_L1D
cpu1_L1D
cpu1_L1D
cpu1_L1D
cpu1_L1D
cpu1_L1D
cpu1_L1D
cpu1_L1D
cpu1_L1D
cpu1_L1D
cpu1_L1D
cpu1_L1D
cpu1_L1D
cpu1_L1D
cpu1_L1D
cpu1_L1D
cpu1_L1D
cpu1_L1D
cpu1_L1D
cpu1_L1D
cpu1_L1D
cpu1_L1D
cpu1_L1D
cpu1_L1D
cpu1_L1D
cpu1_DTLB
cpu1_L1D
cpu1_L1D
cpu1_L1D
cpu1_L1D
cpu1_L1D
cpu1_L1D
cpu1_L1D
cpu1_L1D
cpu1_L1D
cpu1_L1D
cpu1_L1D
cpu1_L1D
cpu1_L1D
cpu1_L1D
cpu1_L1D
cpu1_L1D
cpu1_L1D
cpu1_L1D
cpu1_L1D
cpu1_L1D
cpu1_L1D
cpu1_L1D
cpu1_L1D
cpu1_DTLB
cpu1_L1D
cpu1_L1D
cpu1_L1D
cpu1_L1D
cpu1_L1D
cpu1_DTLB
cpu1_L1D
cpu1_L1D
cpu1_L1D
cpu1_L1D
cpu1_L1D
cpu1_L1D
cpu1_L1D
cpu1_L1D
cpu1_L1D
cpu1_L1D
cpu1_L1D
Warmup finished CPU 1 instructions: 200003 cycles: 50103 cumulative IPC: 3.992 (Simulation time: 00 hr 00 min 02 sec)
cpu1_L1D
cpu1_L1D
cpu1_L1D
cpu1_L1D
cpu1_L1D
cpu1_L1D
cpu1_L1D
cpu1_L1D
cpu1_L1D
cpu1_L1D
cpu1_L1D
cpu1_L1D
cpu1_L1D
cpu1_L1D
cpu1_L1D
cpu1_L1D
cpu1_L1D
cpu1_L1D
cpu1_L1D
cpu1_L1D
cpu1_L1D
cpu1_L1D
cpu1_L1D
cpu1_L1D
Warmup finished CPU 2 instructions: 200001 cycles: 50808 cumulative IPC: 3.936 (Simulation time: 00 hr 00 min 02 sec)
cpu1_L1D
cpu1_L1D
cpu1_L1D
cpu1_L1D
cpu1_L1D
cpu1_L1D
cpu1_L1D
cpu1_L1D
cpu1_L1D
cpu1_L1D
cpu1_L1D
cpu1_L1D
cpu1_L1D
cpu1_L1D
cpu1_L1D
cpu1_L1D
cpu1_L1D
cpu1_L1D
cpu1_L1D
cpu1_L1D
cpu1_L1D
cpu1_L1D
cpu1_L1D
cpu1_L1D
cpu1_L1D
cpu1_L1D
cpu1_L1D
cpu1_L1D
cpu1_L1D
cpu1_L1D
cpu1_L1D
cpu1_L1D
cpu1_L1D
cpu1_L1D
cpu1_L1D
cpu1_L1D
cpu1_L1D
cpu1_L1D
cpu1_L1D
cpu1_L1D
cpu1_L1D
cpu1_L1D
cpu1_L1D
cpu1_L1D
cpu1_L1D
cpu1_L1D
cpu1_L1D
cpu1_L1D
cpu1_L1D
cpu1_L1D
cpu1_L1D
cpu1_L1D
cpu1_L1D
cpu1_L1D
cpu1_L1D
cpu1_L1D
cpu1_L1D
cpu1_L1D
cpu1_L1D
cpu1_L1D
cpu1_L1D
cpu1_L1D
cpu1_L1D
cpu1_L1D
cpu1_L1D
cpu1_L1D
cpu1_L1D
cpu1_L1D
cpu1_L1D
cpu1_L1D
cpu1_L1D
cpu1_L1D
cpu1_L1D
cpu1_L1D
cpu1_L1D
cpu1_L1D
cpu1_L1D
cpu1_L1D
cpu1_L1D
cpu1_L1D
cpu1_L1D
cpu1_L1D
cpu1_L1D
cpu1_L1D
cpu1_L1D
cpu1_L1D
cpu1_L1D
cpu1_L1D
cpu1_L1D
cpu1_L1D
cpu1_L1D
cpu1_L1D
cpu1_L1D
cpu1_L1D
cpu1_L1D
cpu1_L1D
cpu1_L1D
cpu1_L1D
cpu1_L1D
cpu1_L1D
cpu1_L1D
cpu1_L1D
cpu1_L1D
cpu1_L1D
cpu1_L1D
cpu1_L1D
cpu1_L1D
cpu1_L1D
cpu1_L1D
cpu1_L1D
cpu1_L1D
cpu1_L1D
cpu1_L1D
cpu1_L1D
cpu1_L1D
cpu1_L1D
cpu1_L1D
cpu1_L1D
cpu1_L1D
cpu1_L1D
cpu1_L1D
cpu1_L1D
cpu1_L1D
cpu1_L1D
cpu1_L1D
cpu1_L1D
cpu1_L1D
cpu1_L1D
cpu1_L1D
cpu1_L1D
cpu1_L1D
cpu1_L1D
cpu1_L1D
cpu1_L1D
cpu1_L1D
cpu1_L1D
cpu1_L1D
cpu1_L1D
cpu1_L1D
cpu1_L1D
cpu1_L1D
cpu1_L1D
cpu1_L1D
cpu1_L1D
cpu1_L1D
cpu1_L1D
cpu1_L1D
cpu1_L1D
cpu1_L1D
cpu1_L1D
cpu1_L1D
cpu1_L1D
cpu1_L1D
cpu1_L1D
cpu1_L1D
cpu1_L1D
cpu1_L1D
cpu1_L1D
cpu1_L1D
cpu1_L1D
cpu1_L1D
cpu1_L1D
cpu1_L1D
cpu1_DTLB
cpu1_L1D
cpu1_L1D
cpu1_L1D
cpu1_L1D
cpu1_L1D
cpu1_L1D
cpu1_L1D
cpu1_L1D
cpu1_L1D
cpu1_L1D
cpu1_L1D
cpu1_L1D
cpu1_L1D
cpu1_L1D
cpu1_L1D
cpu1_L1D
cpu1_L1D
cpu1_L1D
cpu1_L1D
cpu1_L1D
cpu1_L1D
cpu1_L1D
cpu1_L1D
cpu1_L1D
cpu1_L1D
cpu1_L1D
cpu1_L1D
cpu1_L1D
cpu1_L1D
cpu1_L1D
cpu1_L1D
cpu1_L1D
cpu1_L1D
cpu1_L1D
cpu1_L1D
cpu1_L1D
cpu1_L1D
cpu1_L1D
cpu1_L1D
cpu1_L1D
cpu1_L1D
cpu1_L1D
cpu1_L1D
cpu1_L1D
cpu1_L1D
cpu1_L1D
cpu1_L1D
cpu1_L1D
cpu1_L1D
cpu1_L1D
cpu1_L1D
cpu1_L1D
cpu1_L1D
cpu1_L1D
cpu1_L1D
cpu1_L1D
cpu1_L1D
cpu1_L1D
cpu1_L1D
cpu1_L1D
cpu1_L1D
cpu1_L1D
cpu1_L1D
cpu1_L1D
cpu1_L1D
cpu1_L1D
cpu1_L1D
cpu1_L1D
cpu1_L1D
cpu1_L1D
cpu1_L1D
cpu1_L1D
cpu1_L1D
cpu1_L1D
cpu1_L1D
cpu1_L1D
cpu1_L1D
cpu1_L1D
cpu1_L1D
cpu1_L1D
cpu1_L1D
cpu1_L1D
cpu1_L1D
cpu1_L1D
cpu1_L1D
cpu1_L1D
cpu1_L1D
cpu1_L1D
cpu1_L1D
cpu1_L1D
cpu1_L1D
cpu1_L1D
cpu1_L1D
cpu1_L1D
cpu1_L1D
cpu1_L1D
cpu1_L1D
cpu1_L1D
cpu1_L1D
cpu1_L1D
cpu1_L1D
cpu1_L1D
cpu1_L1D
cpu1_L1D
cpu1_L1D
cpu1_L1D
cpu1_L1D
cpu1_L1D
cpu1_DTLB
cpu1_L1D
cpu1_L1D
cpu1_L1D
cpu1_L1D
cpu1_L1D
cpu1_L1D
cpu1_L1D
cpu1_L1D
cpu1_L1D
cpu1_L1D
cpu1_L1D
cpu1_L1D
cpu1_L1D
cpu1_L1D
cpu1_L1D
cpu1_L1D
cpu1_L1D
cpu1_L1D
cpu1_L1D
cpu1_L1D
cpu1_L1D
cpu1_L1D
cpu1_L1D
cpu1_L1D
cpu1_L1D
cpu1_L1D
cpu1_L1D
cpu1_L1D
cpu1_L1D
cpu1_L1D
cpu1_L1D
cpu1_L1D
cpu1_L1D
cpu1_L1D
cpu1_L1D
cpu1_L1D
cpu1_L1D
cpu1_L1D
cpu1_L1D
cpu1_L1D
cpu1_L1D
cpu1_L1D
cpu1_L1D
cpu1_L1D
cpu1_L1D
cpu1_L1D
cpu1_L1D
cpu1_L1D
cpu1_L1D
cpu1_L1D
cpu1_L1D
cpu1_L1D
cpu1_L1D
cpu1_L1D
cpu1_L1D
cpu1_L1D
cpu1_L1D
cpu1_L1D
cpu1_L1D
cpu1_L1D
cpu1_L1D
cpu1_L1D
cpu1_L1D
cpu1_L1D
cpu1_L1D
cpu1_L1D
cpu1_L1D
cpu1_L1D
cpu1_L1D
cpu1_L1D
cpu1_L1D
cpu1_L1D
cpu1_L1D
cpu1_L1D
cpu1_L1D
cpu1_L1D
cpu1_L1D
cpu1_L1D
cpu1_L1D
cpu1_L1D
cpu1_L1D
cpu1_L1D
cpu1_L1D
cpu1_L1D
cpu1_L1D
cpu1_L1D
cpu1_L1D
cpu1_L1D
cpu1_L1D
cpu1_L1D
cpu1_L1D
cpu1_L1D
cpu1_L1D
cpu1_L1D
cpu1_L1D
cpu1_L1D
cpu1_L1D
cpu1_L1D
cpu1_L1D
cpu1_L1D
cpu1_L1D
cpu1_L1D
cpu1_L1D
cpu1_L1D
cpu1_L1D
cpu1_L1D
cpu1_L1D
cpu1_L1D
cpu1_L1D
cpu1_L1D
cpu1_L1D
cpu1_L1D
cpu1_L1D
cpu1_L1D
cpu1_L1D
cpu1_L1D
cpu1_L1D
cpu1_L1D
cpu1_L1D
cpu1_L1D
cpu1_L1D
cpu1_L1D
cpu1_L1D
cpu1_L1D
cpu1_L1D
cpu1_L1D
cpu1_L1D
cpu1_L1D
cpu1_L1D
cpu1_L1D
cpu1_L1D
cpu1_L1D
cpu1_L1D
cpu1_L1D
cpu1_L1D
cpu1_L1D
cpu1_DTLB
cpu1_L1D
cpu1_L1D
cpu1_L1D
cpu1_L1D
cpu1_L1D
cpu1_L1D
cpu1_L1D
cpu1_L1D
cpu1_L1D
cpu1_L1D
cpu1_L1D
cpu1_L1D
cpu1_L1D
cpu1_L1D
cpu1_L1D
cpu1_L1D
cpu1_L1D
cpu1_L1D
cpu1_L1D
cpu1_L1D
cpu1_L1D
cpu1_L1D
cpu1_L1D
cpu1_L1D
cpu1_L1D
cpu1_L1D
cpu1_L1D
cpu1_L1D
cpu1_L1D
cpu1_L1D
cpu1_L1D
cpu1_L1D
cpu1_L1D
cpu1_L1D
cpu1_L1D
cpu1_L1D
cpu1_L1D
cpu1_L1D
cpu1_L1D
cpu1_L1D
cpu1_L1D
cpu1_L1D
cpu1_L1D
cpu1_L1D
cpu1_L1D
cpu1_L1D
cpu1_L1D
cpu1_L1D
cpu1_L1D
cpu1_L1D
cpu1_L1D
cpu1_L1D
cpu1_L1D
cpu1_L1D
cpu1_L1D
cpu1_L1D
cpu1_DTLB
cpu1_L1D
cpu1_L1D
cpu1_L1D
cpu1_L1D
cpu1_L1D
cpu1_L1D
cpu1_L1D
cpu1_L1D
cpu1_L1D
cpu1_L1D
cpu1_L1D
cpu1_L1D
cpu1_L1D
cpu1_L1D
cpu1_L1D
cpu1_L1D
cpu1_L1D
cpu1_L1D
cpu1_L1D
cpu1_L1D
cpu1_L1D
cpu1_L1D
cpu1_L1D
cpu1_L1D
cpu1_L1D
cpu1_L1D
cpu1_L1D
cpu1_L1D
cpu1_L1D
cpu1_L1D
cpu1_L1D
cpu1_L1D
cpu1_DTLB
cpu1_L1D
cpu1_L1D
cpu1_L1D
cpu1_L1D
cpu1_L1D
cpu1_L1D
cpu1_L1D
cpu1_L1D
cpu1_L1D
cpu1_L1D
cpu1_L1D
cpu1_L1D
cpu1_L1D
cpu1_L1D
cpu1_L1D
cpu1_L1D
cpu1_L1D
cpu1_L1D
cpu1_L1D
cpu1_L1D
cpu1_L1D
cpu1_L1D
cpu1_L1D
cpu1_L1D
cpu1_L1D
cpu1_L1D
cpu1_L1D
cpu1_L1D
cpu1_L1D
cpu1_L1D
cpu1_L1D
cpu1_L1D
cpu1_L1D
cpu1_L1D
cpu1_L1D
cpu1_L1D
cpu1_L1D
cpu1_L1D
cpu1_L1D
cpu1_L1D
cpu1_L1D
cpu1_L1D
cpu1_L1D
cpu1_L1D
cpu1_L1D
cpu1_L1D
cpu1_L1D
cpu1_L1D
cpu1_L1D
cpu1_L1D
cpu1_L1D
cpu1_L1D
cpu1_L1D
cpu1_L1D
cpu1_L1D
cpu1_L1D
cpu1_L1D
cpu1_L1D
cpu1_L1D
cpu1_DTLB
cpu1_L1D
cpu1_L1D
cpu1_L1D
cpu1_L1D
cpu1_L1D
cpu1_L1D
cpu1_L1D
cpu1_L1D
cpu1_L1D
cpu1_L1D
cpu1_L1D
cpu1_L1D
cpu1_L1D
cpu1_L1D
cpu1_L1D
cpu1_L1D
cpu1_L1D
cpu1_L1D
cpu1_L1D
cpu1_DTLB
cpu1_L1D
cpu1_L1D
cpu1_L1D
cpu1_L1D
cpu1_L1D
cpu1_L1D
cpu1_L1D
cpu1_L1D
cpu1_L1D
cpu1_L1D
Warmup finished CPU 0 instructions: 200000 cycles: 64019 cumulative IPC: 3.124 (Simulation time: 00 hr 00 min 04 sec)
cpu1_L1D
cpu1_L1D
cpu1_L1D
cpu1_L1D
cpu1_L1D
cpu1_L1D
cpu1_L1D
cpu1_L1D
cpu1_L1D
cpu1_L1D
cpu1_L1D
cpu1_L1D
cpu1_L1D
cpu1_L1D
cpu1_L1D
cpu1_L1D
cpu1_L1D
cpu1_L1D
cpu1_L1D
cpu1_L1D
cpu1_L1D
cpu1_L1D
cpu1_L1D
cpu1_L1D
cpu1_L1D
cpu1_L1D
cpu1_L1D
cpu1_L1D
cpu1_L1D
cpu1_L1D
cpu1_L2C
cpu1_L1D
cpu1_L1D
cpu1_L1D
cpu1_L1D
cpu1_L1D
cpu1_L1D
cpu1_L1D
cpu1_L1D
cpu1_L1D
cpu1_L1D
cpu1_L1D
cpu1_L1D
cpu1_L1D
cpu1_L1D
cpu1_L1D
cpu1_L1D
cpu1_L1D
cpu1_L1D
cpu1_L1D
cpu1_L1D
cpu1_L1D
cpu1_L1D
cpu1_L1D
cpu1_L1D
cpu1_L1D
cpu1_L1D
cpu1_L1D
cpu1_L1D
cpu1_L1D
cpu1_L1D
cpu1_L1D
cpu1_L1D
cpu1_L1D
cpu1_L1D
cpu1_L1D
cpu1_L1D
cpu1_L1D
cpu1_L1D
cpu1_L1D
cpu1_L1D
cpu1_L1D
cpu1_L1D
cpu1_L1D
cpu1_L1D
cpu1_L1D
cpu1_L1D
cpu1_L1D
cpu1_L1D
cpu1_L1D
cpu1_L1D
cpu1_L1D
cpu1_L1D
cpu1_L1D
cpu1_L1D
cpu1_L1D
cpu1_L1D
cpu1_L1D
cpu1_L1D
cpu1_L1D
cpu1_L1D
cpu1_L1D
cpu1_L1D
cpu1_L1D
cpu1_L1D
cpu1_L1D
cpu1_L1D
cpu1_L1D
cpu1_L1D
cpu1_L1D
cpu1_L1D
cpu1_L1D
cpu1_L1D
cpu1_L1D
cpu1_L1D
cpu1_L1D
cpu1_L1D
cpu1_L1D
cpu1_L1D
cpu1_L1D
cpu1_L1D
cpu1_L1D
cpu1_L1D
cpu1_L1D
cpu1_L1D
cpu1_L1D
cpu1_L1D
cpu1_L1D
cpu1_L1D
cpu1_L1D
cpu1_L1D
cpu1_L1D
cpu1_L1D
cpu1_L1D
cpu1_L1D
cpu1_L1D
cpu1_L1D
cpu1_L1D
cpu1_L1D
cpu1_L1D
cpu1_L1D
cpu1_L1D
cpu1_L1D
cpu1_L1D
cpu1_L1D
cpu1_L1D
cpu1_L1D
cpu1_L1D
cpu1_L1D
cpu1_L1D
cpu1_DTLB
cpu1_L1D
cpu1_L1D
cpu1_L1D
cpu1_L1D
cpu1_L1D
cpu1_L1D
cpu1_L1D
cpu1_L1D
cpu1_L1D
cpu1_L1D
cpu1_L1D
cpu1_L1D
cpu1_L1D
cpu1_L1D
cpu1_L1D
cpu1_L1D
cpu1_L1D
cpu1_L1D
cpu1_L1D
cpu1_L1D
cpu1_L1D
cpu1_L1D
cpu1_L1D
cpu1_L1D
cpu1_L1D
cpu1_L1D
cpu1_L1D
cpu1_L1D
cpu1_L1D
cpu1_L1D
cpu1_L1D
cpu1_L1D
cpu1_L1D
cpu1_L1D
cpu1_L1D
cpu1_L1D
cpu1_L1D
cpu1_L1D
cpu1_L1D
cpu1_L1D
cpu1_L1D
cpu1_L1D
cpu1_L1D
cpu1_L1D
cpu1_L1D
cpu1_L1D
cpu1_L1D
cpu1_L1D
cpu1_L1D
cpu1_L1D
cpu1_L1D
cpu1_L1D
cpu1_L1D
cpu1_L1D
cpu1_L1D
cpu1_L1D
cpu1_L1D
cpu1_L1D
cpu1_L1D
cpu1_L1D
cpu1_L1D
cpu1_L1D
cpu1_L1D
cpu1_L1D
cpu1_L1D
cpu1_L1D
cpu1_L1D
cpu1_L1D
cpu1_L1D
cpu1_L1D
cpu1_L1D
cpu1_L1D
cpu1_L1D
cpu1_L1D
cpu1_L1D
cpu1_L1D
cpu1_L1D
cpu1_L1D
cpu1_L1D
cpu1_L1D
cpu1_L1D
cpu1_L1D
cpu1_L1D
cpu1_L1D
cpu1_L1D
cpu1_L1D
cpu1_L1D
cpu1_L1D
cpu1_L1D
cpu1_L1D
cpu1_L1D
cpu1_L1D
cpu1_L1D
cpu1_L1D
cpu1_L1D
cpu1_L1D
cpu1_L1D
cpu1_L1D
cpu1_L1D
cpu1_L1D
cpu1_L1D
cpu1_L1D
cpu1_L1D
cpu1_L1D
cpu1_L1D
cpu1_L1D
cpu1_L1D
cpu1_L1D
cpu1_L1D
cpu1_L1D
cpu1_L1D
cpu1_L1D
cpu1_L1D
cpu1_L1D
cpu1_L1D
cpu1_L1D
cpu1_L1D
cpu1_L1D
cpu1_DTLB
cpu1_L1D
cpu1_L1D
cpu1_L1D
cpu1_L1D
cpu1_L1D
cpu1_L1D
cpu1_L1D
cpu1_L1D
cpu1_L1D
cpu1_L1D
cpu1_L1D
cpu1_L1D
cpu1_L1D
cpu1_L1D
cpu1_L1D
cpu1_L1D
cpu1_L1D
cpu1_L1D
cpu1_L1D
cpu1_L1D
cpu1_L1D
cpu1_L1D
cpu1_L1D
cpu1_L1D
cpu1_L1D
cpu1_L1D
cpu1_L1D
cpu1_L1D
cpu1_L1D
cpu1_L1D
cpu1_L1D
cpu1_L1D
cpu1_L1D
cpu1_L1D
cpu1_L1D
cpu1_L1D
cpu1_L1D
cpu1_L1D
cpu1_L1D
cpu1_L1D
cpu1_L1D
cpu1_L1D
cpu1_L1D
cpu1_L1D
cpu1_L1D
cpu1_L1D
cpu1_L1D
cpu1_L1D
cpu1_L1D
cpu1_L1D
cpu1_L1D
cpu1_L1D
cpu1_L1D
cpu1_L1D
cpu1_L1D
cpu1_L1D
cpu1_L1D
cpu1_L1D
cpu1_L1D
cpu1_L1D
cpu1_L1D
cpu1_L1D
cpu1_L1D
cpu1_L1D
cpu1_L1D
cpu1_L1D
cpu1_L1D
cpu1_L1D
cpu1_L1D
cpu1_L1D
cpu1_L1D
cpu1_L1D
cpu1_L1D
cpu1_L1D
cpu1_L1D
cpu1_L1D
cpu1_L1D
cpu1_L1D
cpu1_L1D
cpu1_L1D
cpu1_L1D
cpu1_L1D
cpu1_L1D
cpu1_L1D
cpu1_L1D
cpu1_L1D
cpu1_L1D
cpu1_L1D
cpu1_L1D
cpu1_L1D
cpu1_L1D
cpu1_L1D
cpu1_L1D
cpu1_L1D
cpu1_L1D
cpu1_L1D
cpu1_L1D
cpu1_L1D
cpu1_L1D
cpu1_L1D
cpu1_L1D
cpu1_L1D
cpu1_L1D
cpu1_L1D
cpu1_L1D
cpu1_L1D
cpu1_L1D
cpu1_L1D
cpu1_L1D
cpu1_L1D
cpu1_L1D
cpu1_L1D
cpu1_L1D
cpu1_L1D
cpu1_L1D
cpu1_L1D
cpu1_L1D
cpu1_L1D
cpu1_L1D
cpu1_L1D
cpu1_L1D
cpu1_L1D
cpu1_L1D
cpu1_L1D
cpu1_L1D
cpu1_L1D
cpu1_L1D
cpu1_L1D
cpu1_L1D
cpu1_L1D
cpu1_L1D
cpu1_L1D
cpu1_L1D
cpu1_L1D
cpu1_L1D
cpu1_L1D
cpu1_L1D
cpu1_L1D
cpu1_L1D
cpu1_L1D
cpu1_L1D
cpu1_L1D
cpu1_L1D
cpu1_L1D
cpu1_L1D
cpu1_L1D
cpu1_L1D
cpu1_L1D
cpu1_L1D
cpu1_L1D
cpu1_DTLB
cpu1_L1D
cpu1_DTLB
cpu1_L1D
cpu1_L1D
cpu1_L1D
cpu1_L1D
cpu1_DTLB
cpu1_L1D
cpu1_DTLB
cpu1_L1D
cpu1_L1D
cpu1_L1D
cpu1_L1D
cpu1_L1D
cpu1_L1D
cpu1_L1D
cpu1_L1D
cpu1_L1D
cpu1_L1D
cpu1_L1D
cpu1_L1D
cpu1_L1D
cpu1_L1D
cpu1_L1D
cpu1_L1D
cpu1_L1D
cpu1_L1D
cpu1_L1D
cpu1_L1D
cpu1_L1D
cpu1_L1D
cpu1_L1D
cpu1_L1D
cpu1_L1D
cpu1_L1D
cpu1_L1D
cpu1_L1D
cpu1_L1D
cpu1_L1D
cpu1_L1D
cpu1_L1D
cpu1_L1D
cpu1_L1D
cpu1_L1D
cpu1_L1D
cpu1_L1D
cpu1_L1D
cpu1_L1D
cpu1_L1D
cpu1_L1D
cpu1_L1D
cpu1_L1D
cpu1_L1D
cpu1_L1D
cpu1_L1D
cpu1_L1D
cpu1_L1D
cpu1_L1D
cpu1_L1D
cpu1_L1D
cpu1_L1D
cpu1_L1D
cpu1_L1D
cpu1_DTLB
cpu1_L1D
cpu1_L1D
cpu1_L1D
cpu1_L1D
cpu1_L1D
cpu1_L1D
cpu1_L1D
cpu1_L1D
cpu1_L1D
cpu1_L1D
cpu1_L1D
cpu1_L1D
cpu1_L1D
cpu1_L1D
cpu1_L1D
cpu1_L1D
cpu1_L1D
cpu1_L1D
cpu1_L1D
cpu1_L1D
cpu1_DTLB
cpu1_L1D
cpu1_L1D
cpu1_L1D
cpu1_L1D
cpu1_L1D
cpu1_L1D
cpu1_L1D
cpu1_L1D
cpu1_L1D
cpu1_L1D
cpu1_L1D
cpu1_L1D
cpu1_L1D
cpu1_L1D
cpu1_L1D
cpu1_L1D
cpu1_L1D
cpu1_L1D
cpu1_L1D
cpu1_L1D
cpu1_L1D
cpu1_L1D
cpu1_L1D
cpu1_L1D
cpu1_L1D
cpu1_L1D
cpu1_L1D
cpu1_L1D
cpu1_L1D
cpu1_L1D
cpu1_L1D
cpu1_L1D
cpu1_L1D
cpu1_L1D
cpu1_L1D
cpu1_L1D
cpu1_L1D
cpu1_L1D
cpu1_L1D
cpu1_L1D
cpu1_L1D
cpu1_L1D
cpu1_L1D
cpu1_L1D
cpu1_L1D
cpu1_L1D
cpu1_L1D
cpu1_L1D
cpu1_L1D
cpu1_L1D
cpu1_L1D
cpu1_L1D
cpu1_L1D
cpu1_L1D
cpu1_L1D
cpu1_L1D
cpu1_L1D
cpu1_L1D
cpu1_L1D
cpu1_L1D
cpu1_L1D
cpu1_L1D
cpu1_L1D
cpu1_L1D
cpu1_L1D
cpu1_L1D
cpu1_L1D
cpu1_L1D
cpu1_L1D
cpu1_L2C
cpu1_L1D
cpu1_L1D
cpu1_L1D
cpu1_L1D
cpu1_L1D
cpu1_L1D
cpu1_L1D
cpu1_L1D
cpu1_L1D
cpu1_L1D
cpu1_L1D
cpu1_L1D
cpu1_L1D
cpu1_L1D
cpu1_L1D
cpu1_L1D
cpu1_L2C
cpu1_L1D
cpu1_L1D
cpu1_L1D
cpu1_L1D
cpu1_L1D
cpu1_L1D
cpu1_L2C
cpu1_L1D
cpu1_L1D
cpu1_L1D
cpu1_L1D
cpu1_L1D
cpu1_L1D
cpu1_L1D
cpu1_L1D
cpu1_L1D
cpu1_L1D
cpu1_L1D
cpu1_L1D
cpu1_L1D
cpu1_L1D
cpu1_L1D
cpu1_L1D
cpu1_L1D
cpu1_L1D
cpu1_L1D
cpu1_L1D
cpu1_L1D
cpu1_L1D
cpu1_L1D
cpu1_L1D
cpu1_L1D
cpu1_L1D
cpu1_L1D
cpu1_L1D
cpu1_L1D
cpu1_L1D
cpu1_L1D
cpu1_L1D
cpu1_L1D
cpu1_L1D
cpu1_L2C
cpu1_L1D
cpu1_L1D
cpu1_L1D
cpu1_L1D
cpu1_L1D
cpu1_L1D
cpu1_L1D
cpu1_L1D
cpu1_L1D
cpu1_L1D
cpu1_L1D
cpu1_L1D
cpu1_L1D
cpu1_L1D
cpu1_L1D
cpu1_L1D
cpu1_L1D
cpu1_L1D
cpu1_L1D
cpu1_L1D
cpu1_L1D
cpu1_L1D
cpu1_DTLB
cpu1_L1D
cpu1_L1D
cpu1_L1D
cpu1_L1D
cpu1_L1D
cpu1_L1D
cpu1_L1D
cpu1_L1D
cpu1_L1D
cpu1_L1D
cpu1_L1D
cpu1_L1D
cpu1_L1D
cpu1_L1D
cpu1_L1D
cpu1_L1D
cpu1_L1D
cpu1_L1D
cpu1_L1D
cpu1_L1D
cpu1_L1D
cpu1_L1D
cpu1_L1D
cpu1_L1D
cpu1_L1D
cpu1_L1D
cpu1_L1D
cpu1_L1D
cpu1_L1D
cpu1_L1D
cpu1_L1D
cpu1_L1D
cpu1_L1D
cpu1_L1D
cpu1_L1D
cpu1_L1D
cpu1_L1D
cpu1_L1D
cpu1_L1D
cpu1_L1D
cpu1_L1D
cpu1_L1D
cpu1_L1D
cpu1_L1D
cpu1_L1D
cpu1_L1D
cpu1_L1D
cpu1_L1D
cpu1_L1D
cpu1_L1D
cpu1_L1D
cpu1_L1D
cpu1_L1D
cpu1_L1D
cpu1_L1D
cpu1_L1D
cpu1_L1D
cpu1_L1D
cpu1_L1D
cpu1_L1D
cpu1_L1D
cpu1_L1D
cpu1_L1D
cpu1_L1D
cpu1_L1D
cpu1_L1D
cpu1_L1D
cpu1_L1D
cpu1_L1D
cpu1_L1D
cpu1_L1D
cpu1_L1D
cpu1_L1D
cpu1_L1D
cpu1_L1D
cpu1_L1D
cpu1_L1D
cpu1_L1D
cpu1_L1D
cpu1_L1D
cpu1_L1D
cpu1_L1D
cpu1_L1D
cpu1_L1D
cpu1_L1D
cpu1_L1D
cpu1_L1D
cpu1_L1D
cpu1_L1D
cpu1_L1D
cpu1_L1D
cpu1_L1D
cpu1_L1D
cpu1_L1D
cpu1_L1D
cpu1_L1D
cpu1_L1D
cpu1_L1D
cpu1_L1D
cpu1_L1D
cpu1_L1D
cpu1_L1D
cpu1_L1D
cpu1_L1D
cpu1_L1D
cpu1_L1D
cpu1_L1D
cpu1_L1D
cpu1_L1D
cpu1_L1D
cpu1_L1D
cpu1_L1D
cpu1_L1D
cpu1_L1D
cpu1_L1D
cpu1_L1D
cpu1_L1D
cpu1_L1D
cpu1_L1D
cpu1_L1D
cpu1_L1D
cpu1_L1D
cpu1_L1D
cpu1_L1D
cpu1_L1D
cpu1_L1D
cpu1_L1D
cpu1_L1D
cpu1_L1D
cpu1_L1D
cpu1_L1D
cpu1_L1D
cpu1_L1D
cpu1_L1D
cpu1_L1D
cpu1_L1D
cpu1_L1D
cpu1_L1D
cpu1_L1D
cpu1_L1D
cpu1_L1D
cpu1_L1D
cpu1_L2C
cpu1_L1D
cpu1_L2C
cpu1_L1D
cpu1_L1D
cpu1_L1D
cpu1_L1D
cpu1_L1D
cpu1_L1D
cpu1_L2C
cpu1_L1D
cpu1_L1D
cpu1_L1D
cpu1_L1D
cpu1_L1D
cpu1_L1D
cpu1_L1D
cpu1_L1D
cpu1_L1D
cpu1_L1D
cpu1_L2C
cpu1_L1D
cpu1_L1D
cpu1_L1D
cpu1_L1D
cpu1_L1D
cpu1_L1D
cpu1_L1D
cpu1_L1D
cpu1_L1D
cpu1_L1D
cpu1_L1D
cpu1_L1D
cpu1_L1D
cpu1_L1D
cpu1_L1D
cpu1_L2C
cpu1_L1D
cpu1_L1D
cpu1_L1D
cpu1_L1D
cpu1_L1D
cpu1_L1D
cpu1_L1D
cpu1_L1D
cpu1_L1D
cpu1_L1D
cpu1_L1D
cpu1_L1D
cpu1_L1D
cpu1_L1D
cpu1_L1D
cpu1_L1D
cpu1_L1D
cpu1_L1D
cpu1_L1D
cpu1_L1D
cpu1_L1D
cpu1_L1D
cpu1_L1D
cpu1_L1D
cpu1_L1D
cpu1_L1D
cpu1_L1D
cpu1_L1D
cpu1_L1D
cpu1_L1D
cpu1_L1D
cpu1_L1D
cpu1_L1D
cpu1_L1D
cpu1_L1D
cpu1_L1D
cpu1_L1D
cpu1_L1D
cpu1_L1D
cpu1_L1D
cpu1_L1D
cpu1_L1D
cpu1_L1D
cpu1_L1D
cpu1_L1D
cpu1_L1D
cpu1_L1D
cpu1_L1D
cpu1_L1D
cpu1_L1D
cpu1_L1D
cpu1_L1D
cpu1_L1D
cpu1_L1D
cpu1_L1D
cpu1_L1D
cpu1_L1D
cpu1_L1D
cpu1_L1D
cpu1_L1D
cpu1_L1D
cpu1_L1D
cpu1_L1D
cpu1_L1D
cpu1_L1D
cpu1_L1D
cpu1_L1D
cpu1_L1D
cpu1_L1D
cpu1_L1D
cpu1_L1D
cpu1_L1D
cpu1_L1D
cpu1_L1D
cpu1_L1D
cpu1_L1D
cpu1_L1D
cpu1_L1D
cpu1_L1D
cpu1_L1D
cpu1_L1D
cpu1_L1D
cpu1_L1D
cpu1_L1D
cpu1_L1D
cpu1_L1D
cpu1_L1D
cpu1_L1D
cpu1_L1D
cpu1_L1D
cpu1_L1D
cpu1_L1D
cpu1_L1D
cpu1_L1D
cpu1_L1D
cpu1_L1D
cpu1_L1D
cpu1_L1D
cpu1_L1D
cpu1_L1D
cpu1_L1D
cpu1_L1D
cpu1_L1D
cpu1_L1D
cpu1_L1D
cpu1_L1D
cpu1_L1D
cpu1_L1D
cpu1_L1D
cpu1_L1D
cpu1_L1D
cpu1_L1D
cpu1_L1D
cpu1_L1D
cpu1_L1D
cpu1_L1D
cpu1_L1D
cpu1_L1D
cpu1_L1D
cpu1_L1D
cpu1_L1D
cpu1_L1D
cpu1_DTLB
cpu1_L1D
cpu1_L1D
cpu1_L1D
cpu1_L1D
cpu1_L1D
cpu1_L1D
cpu1_L1D
cpu1_L1D
cpu1_L1D
cpu1_L1D
cpu1_L1D
cpu1_L1D
cpu1_L1D
cpu1_L1D
cpu1_L1D
cpu1_L1D
cpu1_L1D
cpu1_L1D
cpu1_L1D
cpu1_L1D
cpu1_L1D
cpu1_L1D
cpu1_L1D
cpu1_L1D
cpu1_L1D
cpu1_L1D
cpu1_L1D
cpu1_L1D
cpu1_L1D
cpu1_L1D
cpu1_L1D
cpu1_L1D
cpu1_L1D
cpu1_L1D
cpu1_L1D
cpu1_L1D
cpu1_L1D
cpu1_L2C
cpu1_L1D
cpu1_DTLB
cpu1_L2C
cpu1_L1D
cpu1_L1D
cpu1_L2C
cpu1_L1D
cpu1_L1D
cpu1_L1D
cpu1_L1D
cpu1_L1D
cpu1_L1D
cpu1_L1D
cpu1_L1D
cpu1_L1D
cpu1_L1D
cpu1_L1D
cpu1_L1D
cpu1_L1D
cpu1_L1D
cpu1_L1D
cpu1_L1D
cpu1_L1D
cpu1_L1D
cpu1_L1D
cpu1_L1D
cpu1_L1D
cpu1_L1D
cpu1_L1D
cpu1_L1D
cpu1_L1D
cpu1_L1D
cpu1_L2C
cpu1_L1D
cpu1_L2C
cpu1_L1D
cpu1_L1D
cpu1_L1D
cpu1_L1D
cpu1_L1D
cpu1_L1D
cpu1_L1D
cpu1_L1D
cpu1_L1D
cpu1_L1D
cpu1_L1D
cpu1_L1D
cpu1_L1D
cpu1_L1D
cpu1_L1D
cpu1_L1D
cpu1_L1D
cpu1_L1D
cpu1_L1D
cpu1_L1D
cpu1_L1D
cpu1_L1D
cpu1_L1D
cpu1_L1D
cpu1_DTLB
cpu1_L1D
cpu1_L1D
cpu1_L1D
cpu1_L1D
cpu1_L1D
cpu1_L1D
cpu1_L1D
cpu1_DTLB
cpu1_L1D
cpu1_L1D
cpu1_L1D
cpu1_L1D
cpu1_L1D
cpu1_L1D
cpu1_L1D
cpu1_L1D
cpu1_L2C
cpu1_L1D
cpu1_L1D
cpu1_L1D
cpu1_L1D
cpu1_L1D
cpu1_L1D
cpu1_L1D
cpu1_L1D
cpu1_L1D
cpu1_L1D
cpu1_L1D
cpu1_L1D
cpu1_L1D
cpu1_L1D
cpu1_L2C
cpu1_L1D
cpu1_L1D
cpu1_L2C
cpu1_L1D
cpu1_L1D
cpu1_L1D
cpu1_L1D
cpu1_L1D
cpu1_L1D
cpu1_L1D
cpu1_L1D
cpu1_L1D
cpu1_L1D
cpu1_L1D
cpu1_DTLB
cpu1_L1D
cpu1_L1D
cpu1_L1D
cpu1_L1D
cpu1_L1D
cpu1_L1D
cpu1_L1D
cpu1_L1D
cpu1_L2C
cpu1_L1D
cpu1_L1D
cpu1_L1D
cpu1_L2C
cpu1_L1D
cpu1_L1D
cpu1_L1D
cpu1_L1D
cpu1_L1D
cpu1_L1D
cpu1_DTLB
cpu1_L1D
cpu1_L1D
cpu1_L1D
cpu1_L1D
cpu1_L1D
cpu1_L1D
cpu1_L1D
cpu1_L1D
cpu1_L1D
cpu1_L1D
cpu1_L1D
cpu1_L1D
cpu1_L1D
cpu1_L1D
cpu1_L1D
cpu1_L1D
cpu1_L1D
cpu1_L1D
cpu1_L1D
cpu1_L1D
cpu1_L1D
cpu1_L1D
cpu1_L1D
cpu1_L1D
cpu1_L1D
cpu1_L1D
cpu1_L1D
cpu1_L1D
cpu1_DTLB
cpu1_L1D
cpu1_L1D
cpu1_L1D
cpu1_L1D
cpu1_L1D
cpu1_L1D
cpu1_L1D
cpu1_L1D
cpu1_L1D
cpu1_L1D
cpu1_L1D
cpu1_L1D
cpu1_L1D
cpu1_L1D
cpu1_L1D
cpu1_L1D
cpu1_L1D
cpu1_L1D
cpu1_L1D
cpu1_L1D
cpu1_L1D
cpu1_L1D
cpu1_L1D
cpu1_L1D
cpu1_L1D
cpu1_L1D
cpu1_L1D
cpu1_L1D
cpu1_L1D
cpu1_L1D
cpu1_L1D
cpu1_L1D
cpu1_L1D
cpu1_L1D
cpu1_L1D
cpu1_L1D
cpu1_L1D
cpu1_L1D
cpu1_L2C
cpu1_L1D
cpu1_L1D
cpu1_L1D
cpu1_L1D
cpu1_L1D
cpu1_L2C
cpu1_L1D
cpu1_L1D
cpu1_L1D
cpu1_L1D
cpu1_L1D
cpu1_L1D
cpu1_DTLB
cpu1_L1D
cpu1_L1D
cpu1_L1D
cpu1_L1D
cpu1_L1D
cpu1_L1D
cpu1_L1D
cpu1_L1D
cpu1_L1D
cpu1_L1D
cpu1_L1D
cpu1_L1D
cpu1_L1D
cpu1_L1D
cpu1_L1D
cpu1_L1D
cpu1_L1D
cpu1_L1D
cpu1_L1D
cpu1_L1D
cpu1_L1D
cpu1_L1D
cpu1_L1D
cpu1_L1D
cpu1_L1D
cpu1_L1D
cpu1_L1D
cpu1_L1D
cpu1_L1D
cpu1_L1D
cpu1_L1D
cpu1_L1D
cpu1_L1D
cpu1_L1D
cpu1_L1D
cpu1_L1D
cpu1_L1D
cpu1_L1D
cpu1_L1D
cpu1_L1D
cpu1_L1D
cpu1_L1D
cpu1_L1D
cpu1_L1D
cpu1_L1D
cpu1_L1D
cpu1_L1D
cpu1_L1D
cpu1_L1D
cpu1_L1D
cpu1_L1D
cpu1_L1D
cpu1_L1D
cpu1_L1D
cpu1_L1D
cpu1_L1D
cpu1_L1D
cpu1_L1D
cpu1_L1D
cpu1_L1D
cpu1_DTLB
cpu1_L1D
cpu1_L1D
cpu1_L1D
cpu1_L1D
cpu1_L1D
cpu1_L1D
cpu1_L1D
cpu1_L1D
cpu1_L1D
cpu1_L1D
cpu1_L1D
cpu1_L1D
cpu1_L1D
cpu1_L1D
cpu1_L1D
cpu1_L1D
cpu1_L1D
cpu1_L1D
cpu1_L2C
cpu1_L2C
cpu1_L1D
cpu1_L2C
cpu1_L2C
cpu1_L2C
cpu1_L2C
cpu1_L2C
cpu1_L1D
cpu1_L2C
cpu1_L1D
cpu1_L1D
cpu1_L1D
cpu1_L1D
cpu1_L1D
cpu1_L1D
cpu1_L1D
cpu1_L1D
cpu1_L1D
cpu1_L1D
cpu1_L1D
cpu1_L1D
cpu1_L1D
cpu1_L1D
cpu1_L1D
cpu1_L2C
cpu1_L1D
cpu1_L1D
cpu1_L1D
cpu1_L1D
cpu1_L2C
cpu1_L1D
cpu1_L2C
cpu1_L1D
cpu1_L2C
cpu1_L1D
cpu1_L1D
cpu1_L1D
cpu1_L1D
cpu1_L2C
cpu1_L1D
cpu1_L1D
cpu1_L1D
cpu1_L2C
cpu1_L1D
cpu1_L1D
cpu1_L1D
cpu1_L1D
cpu1_L1D
cpu1_L2C
cpu1_L1D
cpu1_L2C
cpu1_L1D
cpu1_L1D
cpu1_L1D
cpu1_L1D
cpu1_L1D
cpu1_L1D
cpu1_L1D
cpu1_L1D
cpu1_L1D
cpu1_L1D
cpu1_L1D
cpu1_L1D
cpu1_L1D
cpu1_L1D
cpu1_L1D
cpu1_L1D
cpu1_DTLB
cpu1_L2C
cpu1_L1D
cpu1_L1D
cpu1_L1D
cpu1_L1D
cpu1_L1D
cpu1_L1D
cpu1_L1D
cpu1_L1D
cpu1_L1D
cpu1_L1D
cpu1_L1D
cpu1_L1D
cpu1_L1D
cpu1_L1D
cpu1_L1D
cpu1_L1D
cpu1_L1D
cpu1_L1D
cpu1_L1D
cpu1_L2C
cpu1_L1D
cpu1_L1D
cpu1_L1D
cpu1_L1D
cpu1_L1D
cpu1_L1D
cpu1_L1D
cpu1_L1D
cpu1_L1D
cpu1_L1D
cpu1_L1D
cpu1_L1D
cpu1_L1D
cpu1_L1D
cpu1_L1D
cpu1_L1D
cpu1_L1D
cpu1_L1D
cpu1_L1D
cpu1_L1D
cpu1_L1D
cpu1_L1D
cpu1_L1D
cpu1_L2C
cpu1_L1D
cpu1_L1D
cpu1_L2C
cpu1_L1D
cpu1_L1D
cpu1_L2C
cpu1_L1D
cpu1_L1D
cpu1_L1D
cpu1_L1D
cpu1_L1D
cpu1_L1D
cpu1_L1D
cpu1_L1D
cpu1_L1D
cpu1_L1D
cpu1_L1D
cpu1_L1D
cpu1_L1D
cpu1_L1D
cpu1_L1D
cpu1_L1D
cpu1_L1D
cpu1_L1D
cpu1_L1D
cpu1_L1D
cpu1_L1D
cpu1_L1D
cpu1_L1D
cpu1_L2C
cpu1_L1D
cpu1_L1D
cpu1_L2C
cpu1_L2C
cpu1_L1D
cpu1_L1D
cpu1_L1D
cpu1_L1D
cpu1_L1D
cpu1_L1D
cpu1_L1D
cpu1_L1D
cpu1_L1D
cpu1_L1D
cpu1_L1D
cpu1_L1D
cpu1_L1D
cpu1_L1D
cpu1_L1D
cpu1_L1D
cpu1_L1D
cpu1_L1D
cpu1_L1D
cpu1_L1D
cpu1_L1D
cpu1_L1D
cpu1_L1D
cpu1_L1D
cpu1_L1D
cpu1_L1D
cpu1_L1D
cpu1_L1D
cpu1_L1D
cpu1_L1D
cpu1_L1D
cpu1_L1D
cpu1_L1D
cpu1_L1D
cpu1_L1D
cpu1_L1D
cpu1_L1D
cpu1_L1D
cpu1_L1D
cpu1_L1D
cpu1_L1D
cpu1_L1D
cpu1_L1D
cpu1_L1D
cpu1_L1D
cpu1_L1D
cpu1_L1D
cpu1_L1D
cpu1_L2C
cpu1_L1D
cpu1_L1D
cpu1_L1D
cpu1_L1D
cpu1_L1D
cpu1_L1D
cpu1_L1D
cpu1_L1D
cpu1_L1D
cpu1_L1D
cpu1_L1D
cpu1_L1D
cpu1_L1D
cpu1_DTLB
cpu1_L1D
cpu1_L1D
cpu1_L1D
cpu1_L1D
cpu1_L1D
cpu1_L1D
cpu1_L1D
cpu1_L1D
cpu1_L1D
cpu1_L1D
cpu1_L1D
cpu1_L1D
cpu1_L1D
cpu1_L1D
cpu1_L1D
cpu1_L1D
cpu1_L1D
cpu1_L1D
cpu1_L1D
cpu1_L1D
cpu1_L1D
cpu1_L1D
cpu1_L1D
cpu1_L1D
cpu1_L1D
cpu1_L1D
cpu1_L1D
cpu1_L1D
cpu1_L1D
cpu1_L1D
cpu1_L1D
cpu1_L1D
cpu1_L2C
cpu1_L2C
cpu1_L1D
cpu1_L2C
cpu1_L1D
cpu1_L1D
cpu1_L1D
cpu1_L1D
cpu1_L1D
cpu1_L1D
cpu1_L1D
cpu1_L1D
cpu1_L1D
cpu1_L1D
cpu1_L1D
cpu1_L2C
cpu1_L2C
cpu1_L1D
cpu1_L1D
cpu1_L1D
cpu1_L1D
cpu1_L1D
cpu1_L1D
cpu1_L1D
cpu1_L1D
cpu1_L2C
cpu1_L1D
cpu1_L1D
cpu1_L1D
cpu1_L1D
cpu1_L1D
cpu1_L1D
cpu1_L1D
cpu1_L1D
cpu1_L2C
cpu1_L1D
cpu1_L1D
cpu1_L1D
cpu1_L1D
cpu1_L1D
cpu1_L1D
cpu1_L1D
cpu1_DTLB
cpu1_L1D
cpu1_L1D
cpu1_L2C
cpu1_L1D
cpu1_L1D
cpu1_L2C
cpu1_L1D
cpu1_L1D
cpu1_L1D
cpu1_L1D
cpu1_L1D
cpu1_L1D
cpu1_L1D
cpu1_L1D
cpu1_L1D
cpu1_L1D
cpu1_L1D
cpu1_L1D
cpu1_L1D
cpu1_L1D
cpu1_L1D
cpu1_L1D
cpu1_L1D
cpu1_L1D
cpu1_L1D
cpu1_L1D
cpu1_L1D
cpu1_L1D
cpu1_L1D
cpu1_L1D
cpu1_L1D
cpu1_L1D
cpu1_L1D
cpu1_L1D
cpu1_L1D
cpu1_L1D
cpu1_L1D
cpu1_L1D
cpu1_L1D
cpu1_DTLB
cpu1_L1D
cpu1_L1D
cpu1_L2C
cpu1_L1D
cpu1_L1D
cpu1_L1D
cpu1_L1D
cpu1_L1D
cpu1_L1D
cpu1_L1D
cpu1_L1D
cpu1_L1D
cpu1_L1D
cpu1_L1D
cpu1_L1D
cpu1_L1D
cpu1_L1D
cpu1_L1D
cpu1_L1D
cpu1_L1D
cpu1_L1D
cpu1_L1D
cpu1_L1D
cpu1_L1D
cpu1_L1D
cpu1_L1D
cpu1_L1D
cpu1_L1D
cpu1_L1D
cpu1_L2C
cpu1_L1D
cpu1_L1D
cpu1_L1D
cpu1_L1D
cpu1_L1D
cpu1_L1D
cpu1_L1D
cpu1_L1D
cpu1_L1D
cpu1_L1D
cpu1_L1D
cpu1_L1D
cpu1_L1D
cpu1_L1D
cpu1_L1D
cpu1_L1D
cpu1_L1D
cpu1_L1D
cpu1_L1D
cpu1_L1D
cpu1_L1D
cpu1_L1D
cpu1_L2C
cpu1_L1D
cpu1_L1D
cpu1_L1D
cpu1_L1D
cpu1_L1D
cpu1_L1D
cpu1_L2C
cpu1_L1D
cpu1_L2C
cpu1_L1D
cpu1_L2C
cpu1_L2C
cpu1_L1D
cpu1_L1D
cpu1_L1D
cpu1_L2C
cpu1_L2C
cpu1_L1D
cpu1_L2C
cpu1_L1D
cpu1_L1D
cpu1_L1D
cpu1_L1D
cpu1_L1D
cpu1_L1D
cpu1_L1D
cpu1_L2C
cpu1_L1D
cpu1_L1D
cpu1_L1D
cpu1_L1D
cpu1_L2C
cpu1_L1D
cpu1_L1D
cpu1_L1D
cpu1_L1D
cpu1_L1D
cpu1_L1D
cpu1_L1D
cpu1_L1D
cpu1_L1D
cpu1_L1D
cpu1_L1D
cpu1_L1D
cpu1_L1D
cpu1_L1D
cpu1_L1D
cpu1_L1D
cpu1_L1D
cpu1_L2C
cpu1_L1D
cpu1_L2C
cpu1_L2C
cpu1_L1D
cpu1_L1D
cpu1_L1D
cpu1_L1D
cpu1_L1D
cpu1_L1D
cpu1_L1D
cpu1_L1D
cpu1_L1D
cpu1_L1D
cpu1_L1D
cpu1_L1D
cpu1_L1D
cpu1_L1D
cpu1_L1D
cpu1_DTLB
cpu1_L1D
cpu1_L1D
cpu1_L1D
cpu1_L1D
cpu1_L1D
cpu1_L1D
cpu1_L1D
cpu1_L1D
cpu1_L1D
cpu1_L1D
cpu1_L1D
cpu1_L1D
cpu1_L1D
cpu1_L1D
cpu1_L1D
cpu1_L1D
cpu1_L1D
cpu1_L1D
cpu1_L1D
cpu1_L1D
cpu1_L1D
cpu1_L1D
cpu1_L2C
cpu1_L1D
cpu1_L1D
cpu1_L1D
cpu1_L1D
cpu1_L1D
cpu1_L1D
cpu1_L1D
cpu1_L2C
cpu1_L1D
cpu1_L1D
cpu1_L1D
cpu1_L1D
cpu1_L1D
cpu1_L1D
cpu1_L2C
cpu1_L1D
cpu1_L1D
cpu1_L1D
cpu1_L1D
cpu1_L1D
cpu1_L1D
cpu1_L1D
cpu1_DTLB
cpu1_L1D
cpu1_L1D
cpu1_DTLB
cpu1_L1D
cpu1_L1D
cpu1_L2C
cpu1_L2C
cpu1_L1D
cpu1_L1D
cpu1_L2C
cpu1_L1D
cpu1_L1D
cpu1_L1D
cpu1_L1D
cpu1_L1D
cpu1_L1D
cpu1_L1D
cpu1_L1D
cpu1_L2C
cpu1_L1D
cpu1_L1D
cpu1_L1D
cpu1_L1D
cpu1_L2C
cpu1_L2C
cpu1_L1D
cpu1_L1D
cpu1_L1D
cpu1_L1D
cpu1_L1D
cpu1_L1D
cpu1_L2C
cpu1_L1D
cpu1_L2C
cpu1_L1D
cpu1_L1D
cpu1_L1D
cpu1_L1D
cpu1_L1D
cpu1_L1D
cpu1_L2C
cpu1_L1D
cpu1_L1D
cpu1_L1D
cpu1_L1D
cpu1_L1D
cpu1_L1D
cpu1_L1D
cpu1_L1D
cpu1_L1D
cpu1_L1D
cpu1_L1D
cpu1_L1D
cpu1_L1D
cpu1_L1D
cpu1_L1D
cpu1_L1D
cpu1_L1D
cpu1_L1D
cpu1_L1D
cpu1_L1D
cpu1_L1D
cpu1_L1D
cpu1_L1D
cpu1_L1D
cpu1_L1D
cpu1_L1D
cpu1_L2C
cpu1_L1D
cpu1_L1D
cpu1_L1D
cpu1_L2C
cpu1_L1D
cpu1_L1D
cpu1_L1D
cpu1_L1D
cpu1_L1D
cpu1_L1D
cpu1_L1D
cpu1_L1D
cpu1_L1D
cpu1_L1D
cpu1_L1D
cpu1_L1D
cpu1_L1D
cpu1_L1D
cpu1_L1D
cpu1_L1D
cpu1_L1D
cpu1_L1D
cpu1_L1D
cpu1_L1D
cpu1_L1D
cpu1_L1D
cpu1_L1D
cpu1_L1D
cpu1_L1D
cpu1_L2C
cpu1_L1D
cpu1_L1D
cpu1_L1D
cpu1_L1D
cpu1_L1D
cpu1_L1D
cpu1_L1D
cpu1_L1D
cpu1_L1D
cpu1_L1D
cpu1_L1D
cpu1_L1D
cpu1_L1D
cpu1_L1D
cpu1_L1D
cpu1_L1D
cpu1_L1D
cpu1_L1D
cpu1_L1D
cpu1_L1D
cpu1_L1D
cpu1_L1D
cpu1_L1D
cpu1_L1D
cpu1_L2C
cpu1_L1D
cpu1_L1D
cpu1_L1D
cpu1_L2C
cpu1_L2C
cpu1_L1D
cpu1_L2C
cpu1_L2C
cpu1_DTLB
cpu1_L2C
cpu1_L1D
cpu1_L2C
cpu1_L1D
cpu1_L2C
cpu1_L2C
cpu1_L1D
cpu1_L1D
cpu1_L1D
cpu1_L1D
cpu1_L2C
cpu1_L1D
cpu1_L1D
cpu1_L2C
cpu1_L2C
cpu1_L1D
cpu1_L1D
cpu1_L1D
cpu1_L1D
cpu1_L2C
cpu1_L1D
cpu1_L2C
cpu1_L1D
cpu1_L1D
cpu1_L1D
cpu1_DTLB
cpu1_L2C
cpu1_L1D
cpu1_DTLB
cpu1_L2C
cpu1_L1D
cpu1_L1D
cpu1_L1D
cpu1_L1D
cpu1_L1D
cpu1_L1D
cpu1_L2C
cpu1_L1D
cpu1_L1D
cpu1_L2C
cpu1_L2C
cpu1_L1D
cpu1_L1D
cpu1_L1D
cpu1_L1D
cpu1_L1D
cpu1_L2C
cpu1_L1D
cpu1_L1D
cpu1_L1D
cpu1_L1D
cpu1_L1D
cpu1_L1D
cpu1_L1D
cpu1_L1D
cpu1_L1D
cpu1_L1D
cpu1_L1D
cpu1_L1D
cpu1_L1D
cpu1_L1D
cpu1_L1D
cpu1_L1D
cpu1_DTLB
cpu1_L1D
cpu1_L1D
cpu1_L1D
cpu1_L1D
cpu1_L1D
cpu1_L1D
cpu1_L1D
cpu1_L1D
cpu1_L2C
cpu1_L1D
cpu1_L1D
cpu1_L1D
cpu1_L1D
cpu1_L2C
cpu1_L1D
cpu1_L1D
cpu1_L1D
cpu1_L1D
cpu1_DTLB
cpu1_L1D
cpu1_L2C
cpu1_L1D
cpu1_L1D
cpu1_L1D
cpu1_L1D
cpu1_L1D
cpu1_L1D
cpu1_L1D
cpu1_L2C
cpu1_L1D
cpu1_L1D
cpu1_DTLB
cpu1_L2C
cpu1_L1D
cpu1_L1D
cpu1_L1D
cpu1_L2C
cpu1_L1D
cpu1_L2C
cpu1_L1D
cpu1_L1D
cpu1_L2C
cpu1_L1D
cpu1_L2C
cpu1_L1D
cpu1_L2C
cpu1_L1D
cpu1_L1D
cpu1_L2C
cpu1_L2C
cpu1_L1D
cpu1_L2C
cpu1_L1D
cpu1_L1D
cpu1_L1D
cpu1_L1D
cpu1_L2C
cpu1_L1D
cpu1_L1D
cpu1_L2C
cpu1_L1D
cpu1_L2C
cpu1_L2C
cpu1_L1D
cpu1_L2C
cpu1_L1D
cpu1_L1D
cpu1_L2C
cpu1_L1D
cpu1_L2C
cpu1_L2C
cpu1_L1D
cpu1_L2C
cpu1_L1D
cpu1_L2C
cpu1_L2C
cpu1_L1D
cpu1_L1D
cpu1_L2C
cpu1_DTLB
cpu1_L1D
cpu1_L2C
cpu1_L2C
cpu1_L1D
cpu1_L2C
cpu1_L1D
cpu1_L2C
cpu1_L1D
cpu1_L1D
cpu1_L1D
cpu1_L1D
cpu1_L1D
cpu1_L2C
cpu1_L1D
cpu1_L2C
cpu1_L1D
cpu1_DTLB
cpu1_L1D
cpu1_L1D
cpu1_L1D
cpu1_L1D
cpu1_L1D
cpu1_L2C
cpu1_L1D
cpu1_L1D
cpu1_L1D
cpu1_L1D
cpu1_L1D
cpu1_L2C
cpu1_L1D
cpu1_L1D
cpu1_L1D
cpu1_L1D
cpu1_L1D
cpu1_L2C
cpu1_L1D
cpu1_L2C
cpu1_L1D
cpu1_L2C
cpu1_L1D
cpu1_L2C
cpu1_L1D
cpu1_L1D
cpu1_L1D
cpu1_L1D
cpu1_L1D
cpu1_L1D
cpu1_DTLB
cpu1_L2C
cpu1_L1D
cpu1_L1D
cpu1_L1D
cpu1_L1D
cpu1_L1D
cpu1_L2C
cpu1_L1D
cpu1_L1D
cpu1_L1D
cpu1_L1D
cpu1_L1D
cpu1_L1D
cpu1_L1D
cpu1_L2C
cpu1_L1D
cpu1_L1D
cpu1_L1D
cpu1_L2C
cpu1_L1D
cpu1_L1D
cpu1_L1D
cpu1_L2C
cpu1_L1D
cpu1_L1D
cpu1_L1D
cpu1_L1D
cpu1_L1D
cpu1_L1D
cpu1_L1D
cpu1_L1D
cpu1_L1D
cpu1_L1D
cpu1_L1D
cpu1_L2C
cpu1_L1D
cpu1_L1D
cpu1_L1D
cpu1_L2C
cpu1_L1D
cpu1_L2C
cpu1_L1D
cpu1_L1D
cpu1_L1D
cpu1_L1D
cpu1_L1D
cpu1_L2C
cpu1_L2C
cpu1_L1D
cpu1_L2C
cpu1_L1D
cpu1_DTLB
cpu1_DTLB
cpu1_L1D
cpu1_L1D
cpu1_L1D
cpu1_L2C
cpu1_L1D
cpu1_L1D
cpu1_L1D
cpu1_L1D
cpu1_L1D
cpu1_L1D
cpu1_L1D
cpu1_DTLB
cpu1_L1D
cpu1_L1D
cpu1_L1D
cpu1_L1D
cpu1_L1D
cpu1_L1D
cpu1_L1D
cpu1_L1D
cpu1_L1D
cpu1_L1D
cpu1_L1D
cpu1_L1D
cpu1_L1D
cpu1_L1D
cpu1_L1D
cpu1_L1D
cpu1_L1D
cpu1_L1D
cpu1_L1D
cpu1_L1D
cpu1_L2C
cpu1_L1D
cpu1_L1D
cpu1_L1D
cpu1_L1D
cpu1_L1D
cpu1_L1D
cpu1_L1D
cpu1_L1D
cpu1_L2C
cpu1_DTLB
cpu1_L1D
cpu1_L1D
cpu1_L1D
cpu1_L1D
cpu1_L2C
cpu1_L1D
cpu1_L1D
cpu1_L1D
cpu1_L1D
cpu1_L1D
cpu1_L1D
cpu1_L1D
cpu1_L1D
cpu1_L1D
cpu1_L1D
cpu1_L1D
cpu1_L1D
cpu1_L1D
cpu1_L1D
cpu1_L1D
cpu1_L1D
cpu1_L1D
cpu1_L1D
cpu1_L1D
cpu1_L1D
cpu1_L1D
cpu1_L1D
cpu1_L1D
cpu1_L1D
cpu1_L1D
cpu1_L1D
cpu1_L1D
cpu1_L1D
cpu1_L1D
cpu1_L1D
cpu1_L1D
cpu1_L1D
cpu1_L1D
cpu1_L1D
cpu1_L1D
cpu1_L1D
cpu1_L1D
cpu1_L1D
cpu1_L1D
cpu1_L1D
cpu1_L1D
cpu1_L1D
cpu1_L1D
cpu1_L1D
cpu1_L1D
cpu1_L1D
cpu1_L1D
cpu1_L1D
cpu1_L1D
cpu1_L1D
cpu1_L1D
cpu1_L1D
cpu1_L1D
cpu1_L1D
cpu1_L1D
cpu1_L1D
cpu1_L1D
cpu1_L1D
cpu1_L1D
cpu1_L1D
cpu1_L1D
cpu1_L1D
cpu1_L1D
cpu1_L1D
cpu1_L1D
cpu1_L1D
cpu1_L1D
cpu1_L1D
cpu1_L1D
cpu1_DTLB
cpu1_L1D
cpu1_L1D
cpu1_L1D
cpu1_L2C
cpu1_L1D
cpu1_L1D
cpu1_L1D
cpu1_L1D
cpu1_L1D
cpu1_L1D
cpu1_L2C
cpu1_L1D
cpu1_L1D
cpu1_L2C
cpu1_L1D
cpu1_L1D
cpu1_L1D
cpu1_L1D
cpu1_L1D
cpu1_L1D
cpu1_L1D
cpu1_L1D
cpu1_L1D
cpu1_L1D
cpu1_L1D
cpu1_L1D
cpu1_L1D
cpu1_L1D
cpu1_L2C
cpu1_L1D
cpu1_L1D
cpu1_L2C
cpu1_L1D
cpu1_L2C
cpu1_L1D
cpu1_L1D
cpu1_L1D
cpu1_L2C
cpu1_L1D
cpu1_L1D
cpu1_L2C
cpu1_DTLB
cpu1_L2C
cpu1_L1D
cpu1_L1D
cpu1_L1D
cpu1_L1D
cpu1_L1D
cpu1_L2C
cpu1_L2C
cpu1_L1D
cpu1_L1D
cpu1_L1D
cpu1_L1D
cpu1_L2C
cpu1_L1D
cpu1_L2C
cpu1_L2C
cpu1_L1D
cpu1_L2C
cpu1_L1D
cpu1_L2C
cpu1_L1D
cpu1_L1D
cpu1_L1D
cpu1_L2C
cpu1_L1D
cpu1_L1D
cpu1_L2C
cpu1_L1D
cpu1_L1D
cpu1_L2C
cpu1_L2C
cpu1_L1D
cpu1_L1D
cpu1_L1D
cpu1_L1D
cpu1_L1D
cpu1_L1D
cpu1_L2C
cpu1_L2C
cpu1_L1D
cpu1_L1D
cpu1_L2C
cpu1_L1D
cpu1_L1D
cpu1_L1D
cpu1_L1D
cpu1_L2C
cpu1_L1D
cpu1_L1D
cpu1_L1D
cpu1_L1D
cpu1_L1D
cpu1_L1D
cpu1_L1D
cpu1_L2C
cpu1_L1D
cpu1_L1D
cpu1_L1D
cpu1_L1D
cpu1_L2C
cpu1_L1D
cpu1_L2C
cpu1_L1D
cpu1_L1D
cpu1_L2C
cpu1_L1D
cpu1_L1D
cpu1_L1D
cpu1_L2C
cpu1_L1D
cpu1_L1D
cpu1_L1D
cpu1_L1D
cpu1_L1D
cpu1_L1D
cpu1_L1D
cpu1_L1D
cpu1_L1D
cpu1_L1D
cpu1_DTLB
cpu1_L1D
cpu1_L1D
cpu1_L1D
cpu1_L1D
cpu1_L1D
cpu1_L1D
cpu1_L1D
cpu1_L1D
cpu1_L1D
cpu1_L1D
cpu1_L1D
cpu1_L1D
cpu1_L1D
cpu1_L1D
cpu1_L1D
cpu1_L1D
cpu1_L1D
cpu1_L1D
cpu1_L1D
cpu1_L1D
cpu1_L1D
cpu1_L1D
cpu1_L1D
cpu1_L1D
cpu1_L1D
cpu1_L1D
cpu1_L1D
cpu1_L1D
cpu1_L1D
cpu1_L1D
cpu1_L1D
cpu1_L1D
cpu1_L1D
cpu1_L1D
cpu1_L1D
cpu1_L1D
cpu1_L1D
cpu1_L1D
cpu1_L1D
cpu1_L1D
cpu1_L1D
cpu1_L1D
cpu1_L2C
cpu1_L1D
cpu1_L1D
cpu1_L1D
cpu1_L1D
cpu1_L1D
cpu1_L1D
cpu1_L1D
cpu1_L1D
cpu1_L1D
cpu1_L1D
cpu1_L1D
cpu1_L1D
cpu1_L1D
cpu1_L1D
cpu1_L1D
cpu1_L1D
cpu1_L1D
cpu1_L1D
cpu1_L1D
cpu1_L1D
cpu1_L1D
cpu1_L1D
cpu1_L1D
cpu1_L1D
cpu1_L1D
cpu1_L1D
cpu1_L1D
cpu1_L1D
cpu1_L1D
cpu1_L1D
cpu1_L2C
cpu1_L1D
cpu1_L1D
cpu1_L1D
cpu1_L1D
cpu1_L1D
cpu1_DTLB
cpu1_L2C
cpu1_L1D
cpu1_L1D
cpu1_L1D
cpu1_L1D
cpu1_L1D
cpu1_L1D
cpu1_L1D
cpu1_L1D
cpu1_L2C
cpu1_L1D
cpu1_L1D
cpu1_L1D
cpu1_L1D
cpu1_L1D
cpu1_L1D
cpu1_L1D
cpu1_L1D
cpu1_L1D
cpu1_L1D
cpu1_L1D
cpu1_L1D
cpu1_L1D
cpu1_L1D
cpu1_L1D
cpu1_L1D
cpu1_L1D
cpu1_L1D
cpu1_L2C
cpu1_L1D
cpu1_L2C
cpu1_L1D
cpu1_L1D
cpu1_L1D
cpu1_L2C
cpu1_L1D
cpu1_L1D
cpu1_L1D
cpu1_L2C
cpu1_L2C
cpu1_L2C
cpu1_L2C
cpu1_L2C
cpu1_L1D
cpu1_L2C
cpu1_L1D
cpu1_L1D
cpu1_L2C
cpu1_L1D
cpu1_L2C
cpu1_L1D
cpu1_L1D
cpu1_L1D
cpu1_L1D
cpu1_L1D
cpu1_L1D
cpu1_L1D
cpu1_L2C
cpu1_L1D
cpu1_L1D
cpu1_L1D
cpu1_L1D
cpu1_L1D
cpu1_L1D
cpu1_L1D
cpu1_L1D
cpu1_L1D
cpu1_L1D
cpu1_L1D
cpu1_L1D
cpu1_L1D
cpu1_L1D
cpu1_L1D
cpu1_L1D
cpu1_L1D
cpu1_L1D
cpu1_L1D
cpu1_L2C
cpu1_L1D
cpu1_L1D
cpu1_L1D
cpu1_L2C
cpu1_L1D
cpu1_L1D
cpu1_L1D
cpu1_L1D
cpu1_L1D
cpu1_L1D
cpu1_L1D
cpu1_L1D
cpu1_L2C
cpu1_L1D
cpu1_L1D
cpu1_L2C
cpu1_L1D
cpu1_L1D
cpu1_L2C
cpu1_L1D
cpu1_L2C
cpu1_L1D
cpu1_L1D
cpu1_L1D
cpu1_L1D
cpu1_L1D
cpu1_L1D
cpu1_L2C
cpu1_L1D
cpu1_L1D
cpu1_L1D
cpu1_L1D
cpu1_L2C
cpu1_L1D
cpu1_L1D
cpu1_L1D
cpu1_L1D
cpu1_L1D
cpu1_L1D
cpu1_L1D
cpu1_L1D
cpu1_L1D
cpu1_L1D
cpu1_L1D
cpu1_L1D
cpu1_L2C
cpu1_L1D
cpu1_L2C
cpu1_L2C
cpu1_L2C
cpu1_L1D
cpu1_L2C
cpu1_L1D
cpu1_L2C
cpu1_L2C
cpu1_L2C
cpu1_L1D
cpu1_L1D
cpu1_L2C
cpu1_L2C
cpu1_L1D
cpu1_L2C
cpu1_L1D
cpu1_L2C
cpu1_L2C
cpu1_L1D
cpu1_L2C
cpu1_L1D
cpu1_L2C
cpu1_L2C
cpu1_L2C
cpu1_L1D
cpu1_L1D
cpu1_L2C
cpu1_L1D
cpu1_L1D
cpu1_L1D
cpu1_L2C
cpu1_L1D
cpu1_L1D
cpu1_L1D
cpu1_L2C
cpu1_L1D
cpu1_L2C
cpu1_L2C
cpu1_L1D
cpu1_L1D
cpu1_L1D
cpu1_L2C
cpu1_L1D
cpu1_L2C
cpu1_L2C
cpu1_L1D
cpu1_L2C
cpu1_L1D
cpu1_L2C
cpu1_L1D
cpu1_L1D
cpu1_L1D
cpu1_L1D
cpu1_L1D
cpu1_L2C
cpu1_DTLB
cpu1_L1D
cpu1_L1D
cpu1_L2C
cpu1_L1D
cpu1_L1D
cpu1_L1D
cpu1_L2C
cpu1_L1D
cpu1_L1D
cpu1_L1D
cpu1_L1D
cpu1_L1D
cpu1_L1D
cpu1_L1D
cpu1_L1D
cpu1_L1D
cpu1_L1D
cpu1_L1D
cpu1_L1D
cpu1_L2C
cpu1_L1D
cpu1_L1D
cpu1_L1D
cpu1_L1D
cpu1_L1D
cpu1_L2C
cpu1_L1D
cpu1_L2C
cpu1_L1D
cpu1_L2C
cpu1_L1D
cpu1_L1D
cpu1_L1D
cpu1_L2C
cpu1_L2C
cpu1_L1D
cpu1_L1D
cpu1_L1D
cpu1_L2C
cpu1_L1D
cpu1_DTLB
cpu1_L1D
cpu1_L2C
cpu1_L1D
cpu1_L1D
cpu1_L1D
cpu1_L1D
cpu1_L1D
cpu1_L1D
cpu1_L1D
cpu1_L1D
cpu1_L1D
cpu1_L1D
cpu1_L1D
cpu1_L1D
cpu1_L1D
cpu1_L1D
cpu1_L1D
cpu1_L1D
cpu1_L1D
cpu1_L1D
cpu1_L1D
cpu1_L1D
cpu1_L1D
cpu1_L1D
cpu1_L1D
cpu1_L1D
cpu1_L1D
cpu1_L1D
cpu1_L1D
cpu1_L1D
cpu1_L2C
cpu1_L1D
cpu1_L2C
cpu1_L1D
cpu1_L1D
cpu1_L1D
cpu1_DTLB
cpu1_L1D
cpu1_L2C
cpu1_L1D
cpu1_L1D
cpu1_L1D
cpu1_L1D
cpu1_L1D
cpu1_L1D
cpu1_L1D
cpu1_L2C
cpu1_L1D
cpu1_L1D
cpu1_L1D
cpu1_L1D
cpu1_L1D
cpu1_L1D
cpu1_L1D
cpu1_L1D
cpu1_L1D
cpu1_L1D
cpu1_L1D
cpu1_L1D
cpu1_L1D
cpu1_L1D
cpu1_L1D
cpu1_L1D
cpu1_L1D
cpu1_L1D
cpu1_L1D
cpu1_L1D
cpu1_L1D
cpu1_L1D
cpu1_L2C
cpu1_L1D
cpu1_L1D
cpu1_L1D
cpu1_L1D
cpu1_L1D
cpu1_L1D
cpu1_L1D
cpu1_L1D
cpu1_L1D
cpu1_L1D
cpu1_L1D
cpu1_L1D
cpu1_L2C
cpu1_L1D
cpu1_L1D
cpu1_L1D
cpu1_L1D
cpu1_L1D
cpu1_L1D
cpu1_L1D
cpu1_L1D
cpu1_L1D
cpu1_L1D
cpu1_L1D
cpu1_L2C
cpu1_L1D
cpu1_L1D
cpu1_L1D
cpu1_L1D
cpu1_L1D
cpu1_L1D
cpu1_L1D
cpu1_L1D
cpu1_L1D
cpu1_L1D
cpu1_L2C
cpu1_L2C
cpu1_L2C
cpu1_L2C
cpu1_L2C
cpu1_L1D
cpu1_L2C
cpu1_L1D
cpu1_L1D
cpu1_L2C
cpu1_L1D
cpu1_L2C
cpu1_L2C
cpu1_L1D
cpu1_L1D
cpu1_L2C
cpu1_L1D
cpu1_L1D
cpu1_L1D
cpu1_L1D
cpu1_L1D
cpu1_L2C
cpu1_L1D
cpu1_L1D
cpu1_L1D
cpu1_L1D
cpu1_L1D
cpu1_L1D
cpu1_L1D
cpu1_L2C
cpu1_L2C
cpu1_L1D
cpu1_L2C
cpu1_L1D
cpu1_L1D
cpu1_L1D
cpu1_L1D
cpu1_L2C
cpu1_L1D
cpu1_L1D
cpu1_L2C
cpu1_L1D
cpu1_DTLB
cpu1_L2C
cpu1_L2C
cpu1_L1D
cpu1_L1D
cpu1_L1D
cpu1_L2C
cpu1_DTLB
cpu1_L2C
cpu1_L1D
cpu1_L1D
cpu1_L1D
cpu1_L1D
cpu1_L1D
cpu1_L1D
cpu1_L2C
cpu1_L1D
cpu1_L2C
cpu1_L2C
cpu1_L1D
cpu1_L2C
cpu1_L1D
cpu1_L2C
cpu1_L2C
cpu1_L1D
cpu1_L2C
cpu1_L1D
cpu1_L2C
cpu1_L1D
cpu1_L1D
cpu1_L2C
cpu1_L1D
cpu1_L2C
cpu1_L1D
cpu1_L2C
cpu1_L1D
cpu1_L2C
cpu1_L1D
cpu1_L2C
cpu1_L2C
cpu1_L1D
cpu1_L1D
cpu1_L1D
cpu1_L1D
cpu1_L1D
cpu1_L2C
cpu1_L2C
cpu1_L1D
cpu1_L1D
cpu1_L1D
cpu1_L1D
cpu1_L2C
cpu1_L1D
cpu1_L2C
cpu1_L2C
cpu1_L1D
cpu1_L2C
cpu1_L1D
cpu1_L2C
cpu1_L1D
cpu1_L2C
cpu1_L1D
cpu1_L2C
cpu1_L1D
cpu1_DTLB
cpu1_L1D
cpu1_L1D
cpu1_L1D
cpu1_L1D
cpu1_DTLB
cpu1_DTLB
cpu1_L1D
cpu1_L1D
cpu1_L1D
cpu1_DTLB
cpu1_L1D
cpu1_L1D
cpu1_L2C
cpu1_L2C
cpu1_L1D
cpu1_L1D
cpu1_L1D
cpu1_L1D
cpu1_L2C
cpu1_L1D
cpu1_L2C
cpu1_L1D
cpu1_L1D
cpu1_L1D
cpu1_L2C
cpu1_L1D
cpu1_L1D
cpu1_L2C
cpu1_L1D
cpu1_L2C
cpu1_L1D
cpu1_L1D
cpu1_L2C
cpu1_L2C
cpu1_L1D
cpu1_L1D
cpu1_L1D
cpu1_L1D
cpu1_L2C
cpu1_L1D
cpu1_L1D
cpu1_L2C
cpu1_L1D
cpu1_L1D
cpu1_L1D
cpu1_L1D
cpu1_L1D
cpu1_L2C
cpu1_L1D
cpu1_L1D
cpu1_L1D
cpu1_L2C
cpu1_L1D
cpu1_L1D
cpu1_L1D
cpu1_L2C
cpu1_L1D
cpu1_L2C
cpu1_L1D
cpu1_L2C
cpu1_L1D
cpu1_L2C
cpu1_L1D
cpu1_L2C
cpu1_L1D
cpu1_L1D
cpu1_L2C
cpu1_L2C
cpu1_L1D
cpu1_L1D
cpu1_L1D
cpu1_L2C
cpu1_L1D
cpu1_L2C
cpu1_L1D
cpu1_L1D
cpu1_L1D
cpu1_L2C
cpu1_L1D
cpu1_L1D
cpu1_L1D
cpu1_L1D
cpu1_L1D
cpu1_L1D
cpu1_L2C
cpu1_L1D
cpu1_L1D
cpu1_L1D
cpu1_L1D
cpu1_L1D
cpu1_L1D
cpu1_L1D
cpu1_L1D
cpu1_L1D
cpu1_L2C
cpu1_L1D
cpu1_L2C
cpu1_L1D
cpu1_L1D
cpu1_L1D
cpu1_L1D
cpu1_L1D
cpu1_L1D
cpu1_L2C
cpu1_L1D
cpu1_L1D
cpu1_L1D
cpu1_L1D
cpu1_L1D
cpu1_L1D
cpu1_L2C
cpu1_L2C
cpu1_L1D
cpu1_L1D
cpu1_L1D
cpu1_L1D
cpu1_L1D
cpu1_L1D
cpu1_L1D
cpu1_L1D
cpu1_L2C
cpu1_L1D
cpu1_L1D
cpu1_L1D
cpu1_L1D
cpu1_L1D
cpu1_L1D
cpu1_L2C
cpu1_L1D
cpu1_L2C
cpu1_L2C
cpu1_L1D
cpu1_L1D
cpu1_L1D
cpu1_L1D
cpu1_L1D
cpu1_L1D
cpu1_L2C
cpu1_L2C
cpu1_L1D
cpu1_L2C
cpu1_DTLB
cpu1_L1D
cpu1_L1D
cpu1_L1D
cpu1_L1D
cpu1_L2C
cpu1_L1D
cpu1_L1D
cpu1_L1D
cpu1_L1D
cpu1_L2C
cpu1_L1D
cpu1_L1D
cpu1_L2C
cpu1_L1D
cpu1_L1D
cpu1_L1D
cpu1_L1D
cpu1_L1D
cpu1_L1D
cpu1_L2C
cpu1_L2C
cpu1_L1D
cpu1_L2C
cpu1_L1D
cpu1_L1D
cpu1_L1D
cpu1_L1D
cpu1_L1D
cpu1_L1D
cpu1_L1D
cpu1_L1D
cpu1_L1D
cpu1_L1D
cpu1_L2C
cpu1_L1D
cpu1_L1D
cpu1_L1D
cpu1_L1D
cpu1_L1D
cpu1_DTLB
cpu1_L1D
cpu1_L1D
cpu1_L1D
cpu1_L1D
cpu1_L1D
cpu1_L1D
cpu1_L2C
cpu1_L2C
cpu1_L1D
cpu1_L1D
cpu1_L1D
cpu1_L1D
cpu1_L2C
cpu1_L1D
cpu1_L1D
cpu1_L1D
cpu1_L2C
cpu1_L1D
cpu1_L1D
cpu1_L1D
cpu1_L2C
cpu1_L1D
cpu1_L2C
cpu1_L1D
cpu1_L1D
cpu1_L1D
cpu1_L1D
cpu1_L1D
cpu1_L1D
cpu1_L1D
cpu1_L1D
cpu1_L1D
cpu1_L1D
cpu1_L1D
cpu1_L1D
cpu1_L1D
cpu1_L1D
cpu1_L1D
cpu1_L1D
cpu1_L1D
cpu1_L1D
cpu1_L1D
cpu1_L1D
cpu1_L1D
cpu1_L2C
cpu1_L1D
cpu1_L1D
cpu1_L1D
cpu1_L1D
cpu1_L1D
cpu1_L2C
cpu1_L1D
cpu1_L1D
cpu1_L2C
cpu1_L1D
cpu1_L2C
cpu1_L1D
cpu1_L1D
cpu1_L1D
cpu1_L1D
cpu1_L1D
cpu1_L1D
cpu1_L1D
cpu1_L2C
cpu1_L1D
cpu1_L1D
cpu1_L2C
cpu1_L2C
cpu1_L1D
cpu1_L1D
cpu1_L1D
cpu1_L1D
cpu1_L1D
cpu1_L1D
cpu1_L2C
cpu1_L1D
cpu1_L1D
cpu1_L1D
cpu1_L2C
cpu1_L2C
cpu1_L1D
cpu1_L2C
cpu1_L2C
cpu1_L2C
cpu1_L2C
cpu1_L1D
cpu1_L1D
cpu1_L2C
cpu1_L1D
cpu1_L1D
cpu1_L2C
cpu1_L1D
cpu1_L2C
cpu1_L1D
cpu1_L1D
cpu1_L2C
cpu1_L1D
cpu1_L2C
cpu1_L1D
cpu1_L2C
cpu1_L1D
cpu1_L2C
cpu1_L1D
cpu1_L1D
cpu1_L2C
cpu1_L2C
cpu1_L1D
cpu1_L1D
cpu1_L1D
cpu1_L1D
cpu1_DTLB
cpu1_L2C
cpu1_L2C
cpu1_L1D
cpu1_L1D
cpu1_L1D
cpu1_L2C
cpu1_L1D
cpu1_L1D
cpu1_L1D
cpu1_L1D
cpu1_L1D
cpu1_L2C
cpu1_L1D
cpu1_L2C
cpu1_L2C
cpu1_L1D
cpu1_L1D
cpu1_L2C
cpu1_L1D
cpu1_L1D
cpu1_L1D
cpu1_L1D
cpu1_L1D
cpu1_L1D
cpu1_L1D
cpu1_L1D
cpu1_L1D
cpu1_L1D
cpu1_L1D
cpu1_L2C
cpu1_L1D
cpu1_L1D
cpu1_L1D
cpu1_L1D
cpu1_L1D
cpu1_L2C
cpu1_L2C
cpu1_L2C
cpu1_L1D
cpu1_L1D
cpu1_L1D
cpu1_L2C
cpu1_L1D
cpu1_L2C
cpu1_L1D
cpu1_L1D
cpu1_L1D
cpu1_L1D
cpu1_L1D
cpu1_L1D
cpu1_L1D
cpu1_L1D
cpu1_L1D
cpu1_L2C
cpu1_L2C
cpu1_L1D
cpu1_L1D
cpu1_L2C
cpu1_L1D
cpu1_L1D
cpu1_L1D
cpu1_L2C
cpu1_L1D
cpu1_L1D
cpu1_L2C
cpu1_L1D
cpu1_L2C
cpu1_L2C
cpu1_L2C
cpu1_L1D
cpu1_L2C
cpu1_DTLB
cpu1_L2C
cpu1_L2C
cpu1_L1D
cpu1_L2C
cpu1_L2C
cpu1_L2C
cpu1_L2C
cpu1_L1D
cpu1_L2C
cpu1_L1D
cpu1_L1D
cpu1_L2C
cpu1_L1D
cpu1_L2C
cpu1_L2C
cpu1_L2C
cpu1_L1D
cpu1_L2C
cpu1_L1D
cpu1_L2C
cpu1_L1D
cpu1_L2C
cpu1_L1D
cpu1_L1D
cpu1_L1D
cpu1_L2C
cpu1_L2C
cpu1_L2C
cpu1_L1D
cpu1_L1D
cpu1_L1D
cpu1_L2C
cpu1_L1D
cpu1_L2C
cpu1_L2C
cpu1_L1D
cpu1_L2C
cpu1_L1D
cpu1_L2C
cpu1_L2C
cpu1_L2C
cpu1_L1D
cpu1_L1D
cpu1_L1D
cpu1_L1D
cpu1_L2C
cpu1_L1D
cpu1_L2C
cpu1_L2C
cpu1_L2C
cpu1_L2C
cpu1_L1D
cpu1_L1D
cpu1_L2C
cpu1_L2C
cpu1_L1D
cpu1_L1D
cpu1_L2C
cpu1_L1D
cpu1_L1D
cpu1_L2C
cpu1_L2C
cpu1_L1D
cpu1_L1D
cpu1_DTLB
cpu1_L1D
cpu1_L1D
cpu1_L1D
cpu1_L2C
cpu1_L1D
cpu1_L1D
cpu1_L1D
cpu1_L1D
cpu1_L1D
cpu1_L1D
cpu1_L1D
cpu1_L1D
cpu1_L1D
cpu1_L1D
cpu1_L1D
cpu1_L1D
cpu1_L1D
cpu1_L2C
cpu1_L1D
cpu1_L1D
cpu1_L1D
cpu1_L1D
cpu1_L2C
cpu1_L2C
cpu1_L1D
cpu1_L1D
cpu1_L1D
cpu1_L2C
cpu1_L1D
cpu1_L1D
cpu1_L2C
cpu1_L1D
cpu1_L1D
cpu1_L1D
cpu1_L1D
cpu1_L1D
cpu1_L2C
cpu1_L2C
cpu1_L2C
cpu1_L1D
cpu1_L1D
cpu1_L1D
cpu1_L1D
cpu1_L2C
cpu1_L1D
cpu1_L1D
cpu1_L2C
cpu1_L1D
cpu1_L1D
cpu1_L1D
cpu1_L1D
cpu1_L2C
cpu1_L1D
cpu1_L2C
cpu1_L1D
cpu1_L2C
cpu1_L1D
cpu1_L1D
cpu1_L2C
cpu1_L1D
cpu1_L1D
cpu1_L1D
cpu1_DTLB
cpu1_L1D
cpu1_L2C
cpu1_L1D
cpu1_L1D
cpu1_L1D
cpu1_L1D
cpu1_L1D
cpu1_L1D
cpu1_L1D
cpu1_L1D
cpu1_L2C
cpu1_L1D
cpu1_L1D
cpu1_L1D
cpu1_L1D
cpu1_L2C
cpu1_L1D
cpu1_L1D
cpu1_L1D
cpu1_L2C
cpu1_L1D
cpu1_L1D
cpu1_L1D
cpu1_L1D
cpu1_L1D
cpu1_L2C
cpu1_L1D
cpu1_L1D
cpu1_L1D
cpu1_L1D
cpu1_L1D
cpu1_L1D
cpu1_L1D
cpu1_L1D
cpu1_L1D
cpu1_L1D
cpu1_L1D
cpu1_L2C
cpu1_L1D
cpu1_L2C
cpu1_L1D
cpu1_L1D
cpu1_L1D
cpu1_L1D
cpu1_L1D
cpu1_L1D
cpu1_L1D
cpu1_L2C
cpu1_L1D
cpu1_L2C
cpu1_L1D
cpu1_L1D
cpu1_DTLB
cpu1_L1D
cpu1_L2C
cpu1_L1D
cpu1_L1D
cpu1_L1D
cpu1_DTLB
cpu1_L1D
cpu1_L1D
cpu1_L1D
cpu1_L1D
cpu1_L1D
cpu1_L1D
cpu1_L1D
cpu1_L1D
cpu1_L1D
cpu1_L1D
cpu1_L1D
cpu1_L1D
cpu1_L1D
cpu1_L1D
cpu1_L1D
cpu1_L2C
cpu1_L1D
cpu1_L2C
cpu1_L1D
cpu1_L2C
cpu1_L1D
cpu1_L1D
cpu1_L1D
cpu1_L1D
cpu1_L2C
cpu1_L1D
cpu1_DTLB
cpu1_L2C
cpu1_L1D
cpu1_L1D
cpu1_L1D
cpu1_L1D
cpu1_L1D
cpu1_L1D
cpu1_L1D
cpu1_L2C
cpu1_L2C
cpu1_L1D
cpu1_L1D
cpu1_L1D
cpu1_L1D
cpu1_L1D
cpu1_L1D
cpu1_L1D
cpu1_L1D
cpu1_L1D
cpu1_L1D
cpu1_L1D
cpu1_L2C
cpu1_L2C
cpu1_L2C
cpu1_L1D
cpu1_L1D
cpu1_L1D
cpu1_L2C
cpu1_L1D
cpu1_L1D
cpu1_L2C
cpu1_L2C
cpu1_L1D
cpu1_L1D
cpu1_L1D
cpu1_L2C
cpu1_L1D
cpu1_L1D
cpu1_L1D
cpu1_L2C
cpu1_L1D
cpu1_L2C
cpu1_L2C
cpu1_L2C
cpu1_L2C
cpu1_L2C
cpu1_L2C
cpu1_L2C
cpu1_L1D
cpu1_L2C
cpu1_L1D
cpu1_L1D
cpu1_L1D
cpu1_L2C
cpu1_L2C
cpu1_L1D
cpu1_L2C
cpu1_L1D
cpu1_L2C
cpu1_L1D
cpu1_L2C
cpu1_L2C
cpu1_L1D
cpu1_L2C
cpu1_L1D
cpu1_L1D
cpu1_L2C
cpu1_L2C
cpu1_L2C
cpu1_L2C
cpu1_L2C
cpu1_L1D
cpu1_L1D
cpu1_L2C
cpu1_L1D
cpu1_L1D
cpu1_L2C
cpu1_L1D
cpu1_L2C
cpu1_L2C
cpu1_L1D
cpu1_L1D
cpu1_L1D
cpu1_L2C
cpu1_L1D
cpu1_L2C
cpu1_L2C
cpu1_L2C
cpu1_L1D
cpu1_L1D
cpu1_L1D
cpu1_L2C
cpu1_L2C
cpu1_L2C
cpu1_L1D
cpu1_L1D
cpu1_L2C
cpu1_L1D
cpu1_DTLB
cpu1_L1D
cpu1_L2C
cpu1_L1D
cpu1_L1D
cpu1_L1D
cpu1_DTLB
cpu1_L2C
cpu1_L1D
cpu1_DTLB
cpu1_L1D
cpu1_L1D
cpu1_L1D
cpu1_L1D
cpu1_L1D
cpu1_L2C
cpu1_L2C
cpu1_L1D
cpu1_L1D
cpu1_L1D
cpu1_L1D
cpu1_L1D
cpu1_L1D
cpu1_L1D
cpu1_L1D
cpu1_L1D
cpu1_L1D
cpu1_L1D
cpu1_L1D
cpu1_L1D
cpu1_L1D
cpu1_L2C
cpu1_L1D
cpu1_L1D
cpu1_L2C
cpu1_L1D
cpu1_L1D
cpu1_L1D
cpu1_L1D
cpu1_L2C
cpu1_L1D
cpu1_L1D
cpu1_L2C
cpu1_L1D
cpu1_L1D
cpu1_L1D
cpu1_L1D
cpu1_L2C
cpu1_L1D
cpu1_L1D
cpu1_L1D
cpu1_L1D
cpu1_L2C
cpu1_L1D
cpu1_L1D
cpu1_L1D
cpu1_L1D
cpu1_L1D
cpu1_L1D
cpu1_L1D
cpu1_L1D
cpu1_L1D
cpu1_L2C
cpu1_L2C
cpu1_L1D
cpu1_L1D
cpu1_L1D
cpu1_L1D
cpu1_L1D
cpu1_L1D
cpu1_L1D
cpu1_L1D
cpu1_L1D
cpu1_L1D
cpu1_L1D
cpu1_L1D
cpu1_L1D
cpu1_L1D
cpu1_L2C
cpu1_L1D
cpu1_L1D
cpu1_L1D
cpu1_L1D
cpu1_L1D
cpu1_L2C
cpu1_L1D
cpu1_L1D
cpu1_L1D
cpu1_L1D
cpu1_L1D
cpu1_L1D
cpu1_L1D
cpu1_L1D
cpu1_L1D
cpu1_L2C
cpu1_L1D
cpu1_L2C
cpu1_L1D
cpu1_L2C
cpu1_L1D
cpu1_L1D
cpu1_L1D
cpu1_L2C
cpu1_L1D
cpu1_L1D
cpu1_L1D
cpu1_L1D
cpu1_L1D
cpu1_L1D
cpu1_L2C
cpu1_L1D
cpu1_L1D
cpu1_L2C
cpu1_L1D
cpu1_L1D
cpu1_L2C
cpu1_L1D
cpu1_L1D
cpu1_L1D
cpu1_L1D
cpu1_L1D
cpu1_L1D
cpu1_L2C
cpu1_L1D
cpu1_L2C
cpu1_L1D
cpu1_L2C
cpu1_L1D
cpu1_L1D
cpu1_L2C
cpu1_L2C
cpu1_L1D
cpu1_L2C
cpu1_L2C
cpu1_L1D
cpu1_L2C
cpu1_L2C
cpu1_L1D
cpu1_L2C
cpu1_L1D
cpu1_L1D
cpu1_L2C
cpu1_L1D
cpu1_L2C
cpu1_L1D
cpu1_L1D
cpu1_L2C
cpu1_L1D
cpu1_L1D
cpu1_L1D
cpu1_L2C
cpu1_L1D
cpu1_L2C
cpu1_L1D
cpu1_L1D
cpu1_L2C
cpu1_L1D
cpu1_L2C
cpu1_L1D
cpu1_L2C
cpu1_L1D
cpu1_L2C
cpu1_L2C
cpu1_L1D
cpu1_L1D
cpu1_L2C
cpu1_L1D
cpu1_L1D
cpu1_L1D
cpu1_L2C
cpu1_L1D
cpu1_L1D
cpu1_L1D
cpu1_L2C
cpu1_L1D
cpu1_L1D
cpu1_L1D
cpu1_L2C
cpu1_L2C
cpu1_L1D
cpu1_L1D
cpu1_L2C
cpu1_L2C
cpu1_L1D
cpu1_L2C
cpu1_L1D
cpu1_L2C
cpu1_L2C
cpu1_L2C
cpu1_L2C
cpu1_L1D
cpu1_L1D
cpu1_L2C
cpu1_L1D
cpu1_L1D
cpu1_L1D
cpu1_L2C
cpu1_L1D
cpu1_L1D
cpu1_L1D
cpu1_L1D
cpu1_L2C
cpu1_L1D
cpu1_L2C
cpu1_L1D
cpu1_L1D
cpu1_L2C
cpu1_L1D
cpu1_L1D
cpu1_L1D
cpu1_L2C
cpu1_L1D
cpu1_L1D
cpu1_L2C
cpu1_L2C
cpu1_L2C
cpu1_L2C
cpu1_L1D
cpu1_L1D
cpu1_L2C
cpu1_L1D
cpu1_L1D
cpu1_L2C
cpu1_L1D
cpu1_L1D
cpu1_L1D
cpu1_L2C
cpu1_L1D
cpu1_L1D
cpu1_L2C
cpu1_L1D
cpu1_L1D
cpu1_L1D
cpu1_L1D
cpu1_L2C
cpu1_L1D
cpu1_L1D
cpu1_L1D
cpu1_L1D
cpu1_L2C
cpu1_L1D
cpu1_L1D
cpu1_L1D
cpu1_L1D
cpu1_L1D
cpu1_L2C
cpu1_L1D
cpu1_L1D
cpu1_L1D
cpu1_L1D
cpu1_L2C
cpu1_L1D
cpu1_L2C
cpu1_L1D
cpu1_L1D
cpu1_L1D
cpu1_L2C
cpu1_L2C
cpu1_L2C
cpu1_L2C
cpu1_L1D
cpu1_L1D
cpu1_L1D
cpu1_L2C
cpu1_L1D
cpu1_L1D
cpu1_L1D
cpu1_L2C
cpu1_L1D
cpu1_L1D
cpu1_L2C
cpu1_L2C
cpu1_L2C
cpu1_L1D
cpu1_L1D
cpu1_L2C
cpu1_L1D
cpu1_L1D
cpu1_L1D
cpu1_L2C
cpu1_L1D
cpu1_L1D
cpu1_L2C
cpu1_L1D
cpu1_L1D
cpu1_L1D
cpu1_L2C
cpu1_L1D
cpu1_L1D
cpu1_L1D
cpu1_L1D
cpu1_L1D
cpu1_L2C
cpu1_L2C
cpu1_L1D
cpu1_L1D
cpu1_L2C
cpu1_L1D
cpu1_L2C
cpu1_L1D
cpu1_L1D
cpu1_L2C
cpu1_L1D
cpu1_L2C
cpu1_L1D
cpu1_L2C
cpu1_L1D
cpu1_L1D
cpu1_L2C
cpu1_L1D
cpu1_L1D
cpu1_L2C
cpu1_L1D
cpu1_L1D
cpu1_L1D
cpu1_L1D
cpu1_L2C
cpu1_L1D
cpu1_L2C
cpu1_L1D
cpu1_L2C
cpu1_L1D
cpu1_L1D
cpu1_L1D
cpu1_L1D
cpu1_L2C
cpu1_L1D
cpu1_L2C
cpu1_L1D
cpu1_L2C
cpu1_L1D
cpu1_L1D
cpu1_L2C
cpu1_L2C
cpu1_L1D
cpu1_DTLB
cpu1_L1D
cpu1_L2C
cpu1_L1D
cpu1_L1D
cpu1_L1D
cpu1_L1D
cpu1_L1D
cpu1_L2C
cpu1_L1D
cpu1_L1D
cpu1_L1D
cpu1_L1D
cpu1_L1D
cpu1_L1D
cpu1_L1D
cpu1_L1D
cpu1_L1D
cpu1_L1D
cpu1_L1D
cpu1_L1D
cpu1_L1D
cpu1_L1D
cpu1_L2C
cpu1_L2C
cpu1_L1D
cpu1_L2C
cpu1_L1D
cpu1_L1D
cpu1_L1D
cpu1_L1D
cpu1_L1D
cpu1_L1D
cpu1_L2C
cpu1_L1D
cpu1_L1D
cpu1_L1D
cpu1_L1D
cpu1_L1D
cpu1_L1D
cpu1_L1D
cpu1_L2C
cpu1_L1D
cpu1_L2C
cpu1_L2C
cpu1_L2C
cpu1_L1D
cpu1_L2C
cpu1_L1D
cpu1_L2C
cpu1_L1D
cpu1_L2C
cpu1_L1D
cpu1_L1D
cpu1_L1D
cpu1_L1D
cpu1_L1D
cpu1_L2C
cpu1_L2C
cpu1_L2C
cpu1_L1D
cpu1_L2C
cpu1_L1D
cpu1_L1D
cpu1_DTLB
cpu1_L1D
cpu1_L2C
cpu1_L2C
cpu1_L1D
cpu1_L2C
cpu1_L1D
cpu1_L2C
cpu1_L2C
cpu1_L2C
cpu1_L2C
cpu1_L1D
cpu1_L2C
cpu1_L1D
cpu1_L2C
cpu1_L2C
cpu1_L1D
cpu1_L2C
cpu1_L2C
cpu1_L2C
cpu1_L2C
cpu1_L2C
cpu1_L1D
cpu1_L2C
cpu1_L2C
cpu1_L1D
cpu1_L2C
cpu1_L1D
cpu1_L2C
cpu1_L1D
cpu1_L2C
cpu1_L2C
cpu1_L2C
cpu1_L2C
cpu1_L1D
cpu1_L1D
cpu1_L2C
cpu1_L1D
cpu1_L2C
cpu1_L2C
cpu1_L1D
cpu1_L2C
cpu1_L1D
cpu1_L2C
cpu1_L1D
cpu1_L1D
cpu1_L2C
cpu1_L1D
cpu1_L1D
cpu1_L1D
cpu1_L2C
cpu1_L2C
cpu1_L2C
cpu1_L2C
cpu1_L1D
cpu1_L1D
cpu1_L1D
cpu1_L2C
cpu1_L2C
cpu1_L1D
cpu1_L2C
cpu1_L1D
cpu1_L1D
cpu1_L1D
cpu1_L2C
cpu1_L2C
cpu1_L1D
cpu1_L1D
cpu1_L2C
cpu1_L1D
cpu1_L1D
cpu1_L2C
cpu1_L1D
cpu1_L2C
cpu1_L1D
cpu1_L2C
cpu1_L1D
cpu1_L2C
cpu1_L2C
cpu1_L1D
cpu1_L2C
cpu1_L2C
cpu1_L2C
cpu1_L1D
cpu1_L2C
cpu1_L1D
cpu1_L2C
cpu1_L1D
cpu1_L2C
cpu1_L1D
cpu1_L1D
cpu1_L2C
cpu1_L1D
cpu1_L1D
cpu1_L1D
cpu1_L2C
cpu1_L1D
cpu1_L1D
cpu1_L1D
cpu1_L1D
cpu1_L1D
cpu1_L2C
cpu1_L1D
cpu1_L1D
cpu1_L1D
cpu1_L1D
cpu1_L1D
cpu1_L1D
cpu1_L2C
cpu1_L1D
cpu1_L1D
cpu1_L1D
cpu1_L1D
cpu1_L1D
cpu1_L2C
cpu1_L2C
cpu1_L1D
cpu1_L2C
cpu1_L2C
cpu1_L2C
cpu1_L2C
cpu1_L1D
cpu1_L1D
cpu1_L1D
cpu1_L1D
cpu1_L1D
cpu1_L1D
cpu1_L2C
cpu1_L1D
cpu1_L1D
cpu1_L1D
cpu1_L1D
cpu1_L1D
cpu1_L1D
cpu1_L1D
cpu1_L1D
cpu1_L1D
cpu1_L1D
cpu1_L2C
cpu1_L1D
cpu1_L2C
cpu1_L1D
cpu1_L2C
cpu1_L2C
cpu1_L1D
cpu1_L1D
cpu1_L1D
cpu1_L1D
cpu1_L1D
cpu1_L1D
cpu1_L1D
cpu1_L2C
cpu1_L1D
cpu1_L1D
cpu1_L2C
cpu1_L2C
cpu1_L1D
cpu1_L1D
cpu1_L1D
cpu1_L1D
cpu1_L1D
cpu1_L1D
cpu1_L1D
cpu1_L1D
cpu1_L1D
cpu1_DTLB
cpu1_L1D
cpu1_L1D
cpu1_L1D
cpu1_L1D
cpu1_L1D
cpu1_L1D
cpu1_L1D
cpu1_L1D
cpu1_L1D
cpu1_L1D
cpu1_L1D
cpu1_L1D
cpu1_L1D
cpu1_L1D
cpu1_L1D
cpu1_L1D
cpu1_L1D
cpu1_L1D
cpu1_L1D
cpu1_L2C
cpu1_L1D
cpu1_L2C
cpu1_L1D
cpu1_L2C
cpu1_L1D
cpu1_L1D
cpu1_L1D
cpu1_L1D
cpu1_L1D
cpu1_L1D
cpu1_L1D
cpu1_L1D
cpu1_L1D
cpu1_L1D
cpu1_L1D
cpu1_L1D
cpu1_L1D
cpu1_L1D
cpu1_L1D
cpu1_L1D
cpu1_L1D
cpu1_L1D
cpu1_L2C
cpu1_L1D
cpu1_L1D
cpu1_L1D
cpu1_L2C
cpu1_L1D
cpu1_L1D
cpu1_L1D
cpu1_L2C
cpu1_L1D
cpu1_L1D
cpu1_L1D
cpu1_L1D
cpu1_L1D
cpu1_L1D
cpu1_L1D
cpu1_L1D
cpu1_L1D
cpu1_L2C
cpu1_L1D
cpu1_L2C
cpu1_L2C
cpu1_L1D
cpu1_L1D
cpu1_L1D
cpu1_L1D
cpu1_L1D
cpu1_L1D
cpu1_L1D
cpu1_L1D
cpu1_L1D
cpu1_L1D
cpu1_L1D
cpu1_L2C
cpu1_L1D
cpu1_L2C
cpu1_L2C
cpu1_L1D
cpu1_L1D
cpu1_L1D
cpu1_L2C
cpu1_L1D
cpu1_L2C
cpu1_L2C
cpu1_L1D
cpu1_L2C
cpu1_L1D
cpu1_L1D
cpu1_L2C
cpu1_L2C
cpu1_L2C
cpu1_L1D
cpu1_L2C
cpu1_L2C
cpu1_L1D
cpu1_L1D
cpu1_L2C
cpu1_L2C
cpu1_L1D
cpu1_L1D
cpu1_L1D
cpu1_L2C
cpu1_L1D
cpu1_L2C
cpu1_L1D
cpu1_L1D
cpu1_DTLB
cpu1_L2C
cpu1_L1D
cpu1_L2C
cpu1_L2C
cpu1_L2C
cpu1_L2C
cpu1_L1D
cpu1_L1D
cpu1_L1D
cpu1_L1D
cpu1_L2C
cpu1_L2C
cpu1_L1D
cpu1_L1D
cpu1_L1D
cpu1_L1D
cpu1_L1D
cpu1_L2C
cpu1_L1D
cpu1_L1D
cpu1_L1D
cpu1_L1D
cpu1_L1D
cpu1_L1D
cpu1_L2C
cpu1_L1D
cpu1_L2C
cpu1_L2C
cpu1_L2C
cpu1_L2C
cpu1_L1D
cpu1_L1D
cpu1_L1D
cpu1_L1D
cpu1_L1D
cpu1_L1D
cpu1_L2C
cpu1_L1D
cpu1_L1D
cpu1_L1D
cpu1_L2C
cpu1_L1D
cpu1_L1D
cpu1_L2C
cpu1_L2C
cpu1_L1D
cpu1_L2C
cpu1_L1D
cpu1_DTLB
cpu1_L2C
cpu1_L1D
cpu1_L1D
cpu1_L2C
cpu1_L1D
cpu1_L1D
cpu1_L2C
cpu1_L1D
cpu1_L1D
cpu1_L2C
cpu1_L1D
cpu1_L2C
cpu1_L2C
cpu1_L1D
cpu1_L1D
cpu1_L1D
cpu1_L1D
cpu1_L2C
cpu1_L1D
cpu1_L1D
cpu1_L2C
cpu1_L2C
cpu1_L2C
cpu1_L1D
cpu1_L1D
cpu1_L2C
cpu1_L1D
cpu1_L2C
cpu1_L1D
cpu1_L2C
cpu1_L2C
cpu1_L2C
cpu1_L2C
cpu1_L2C
cpu1_L1D
cpu1_L1D
cpu1_L1D
cpu1_L1D
cpu1_L1D
cpu1_L1D
cpu1_L2C
cpu1_L2C
cpu1_L1D
cpu1_L2C
cpu1_L1D
cpu1_L1D
cpu1_L1D
cpu1_L2C
cpu1_L2C
cpu1_L1D
cpu1_L2C
cpu1_L1D
cpu1_L1D
cpu1_L2C
cpu1_L2C
cpu1_L1D
cpu1_L1D
cpu1_L1D
cpu1_L1D
cpu1_L1D
cpu1_L2C
cpu1_L1D
cpu1_L2C
cpu1_L1D
cpu1_L2C
cpu1_L2C
cpu1_L2C
cpu1_L2C
cpu1_L2C
cpu1_L1D
cpu1_L1D
cpu1_L2C
cpu1_L1D
cpu1_L1D
cpu1_L2C
cpu1_L1D
cpu1_L2C
cpu1_L1D
cpu1_L2C
cpu1_L2C
cpu1_L1D
cpu1_L1D
cpu1_L2C
cpu1_L2C
cpu1_L1D
cpu1_L2C
cpu1_L1D
cpu1_L2C
cpu1_L1D
cpu1_L2C
cpu1_L1D
cpu1_L1D
cpu1_L1D
cpu1_L1D
cpu1_L2C
cpu1_DTLB
cpu1_L1D
cpu1_L1D
cpu1_L1D
cpu1_L1D
cpu1_L1D
cpu1_L1D
cpu1_L1D
cpu1_L2C
cpu1_L1D
cpu1_L1D
cpu1_L1D
cpu1_L2C
cpu1_L1D
cpu1_L1D
cpu1_L1D
cpu1_L1D
cpu1_L1D
cpu1_L1D
cpu1_L1D
cpu1_L1D
cpu1_L1D
cpu1_L2C
cpu1_L1D
cpu1_L1D
cpu1_L1D
cpu1_L1D
cpu1_L1D
cpu1_L1D
cpu1_L1D
cpu1_L1D
cpu1_L1D
cpu1_L1D
cpu1_L2C
cpu1_L1D
cpu1_L2C
cpu1_L1D
cpu1_L2C
cpu1_L1D
cpu1_L1D
cpu1_L1D
cpu1_L1D
cpu1_L2C
cpu1_L1D
cpu1_L1D
cpu1_L1D
cpu1_L1D
cpu1_L1D
cpu1_L1D
cpu1_L1D
cpu1_L1D
cpu1_L1D
cpu1_L1D
cpu1_L1D
cpu1_L2C
cpu1_L1D
cpu1_L1D
cpu1_L2C
cpu1_L1D
cpu1_L2C
cpu1_L1D
cpu1_L1D
cpu1_L1D
cpu1_L1D
cpu1_L1D
cpu1_L1D
cpu1_L1D
cpu1_L1D
cpu1_L1D
cpu1_L1D
cpu1_L2C
cpu1_L2C
cpu1_L1D
cpu1_L2C
cpu1_L1D
cpu1_L2C
cpu1_L1D
cpu1_L2C
cpu1_L1D
cpu1_L1D
cpu1_L1D
cpu1_L2C
cpu1_L2C
cpu1_L1D
cpu1_L2C
cpu1_L1D
cpu1_L1D
cpu1_L2C
cpu1_L1D
cpu1_L2C
cpu1_L2C
cpu1_L2C
cpu1_L1D
cpu1_L2C
cpu1_L2C
cpu1_L2C
cpu1_L2C
cpu1_L1D
cpu1_L1D
cpu1_L2C
cpu1_DTLB
cpu1_L1D
cpu1_L2C
cpu1_L1D
cpu1_L2C
cpu1_L2C
cpu1_L2C
cpu1_L2C
cpu1_L2C
cpu1_L2C
cpu1_L2C
cpu1_L2C
cpu1_L1D
cpu1_L2C
cpu1_L1D
cpu1_L1D
cpu1_L2C
cpu1_L1D
cpu1_L1D
cpu1_L2C
cpu1_L1D
cpu1_L2C
cpu1_L2C
cpu1_L1D
cpu1_L1D
cpu1_L1D
cpu1_L2C
cpu1_L1D
cpu1_L2C
cpu1_L1D
cpu1_L2C
cpu1_L1D
cpu1_L2C
cpu1_L1D
cpu1_L2C
cpu1_L1D
cpu1_L1D
cpu1_L2C
cpu1_L1D
cpu1_L2C
cpu1_L1D
cpu1_L1D
cpu1_DTLB
cpu1_L1D
cpu1_L2C
cpu1_L2C
cpu1_L2C
cpu1_L2C
cpu1_L1D
cpu1_L2C
cpu1_L2C
cpu1_L1D
cpu1_L1D
cpu1_L2C
cpu1_L1D
cpu1_L2C
cpu1_L1D
cpu1_L1D
cpu1_L1D
cpu1_L1D
cpu1_L2C
cpu1_L2C
cpu1_L1D
cpu1_L2C
cpu1_L1D
cpu1_L1D
cpu1_L2C
cpu1_L2C
cpu1_L1D
cpu1_L2C
cpu1_L1D
cpu1_L2C
cpu1_L2C
cpu1_L2C
cpu1_L2C
cpu1_L1D
cpu1_L2C
cpu1_L2C
cpu1_L1D
cpu1_L1D
cpu1_L2C
cpu1_L1D
cpu1_L2C
cpu1_L2C
cpu1_L1D
cpu1_L1D
cpu1_L2C
cpu1_L2C
cpu1_L2C
cpu1_L2C
cpu1_L2C
cpu1_L1D
cpu1_L1D
cpu1_L2C
cpu1_L1D
cpu1_L2C
cpu1_L2C
cpu1_L1D
cpu1_L1D
cpu1_L1D
cpu1_L2C
cpu1_L2C
cpu1_L2C
cpu1_L1D
cpu1_L1D
cpu1_L2C
cpu1_L1D
cpu1_L1D
cpu1_L2C
cpu1_L1D
cpu1_L2C
cpu1_L1D
cpu1_L1D
cpu1_L1D
cpu1_L2C
cpu1_L1D
cpu1_L2C
cpu1_L1D
cpu1_L1D
cpu1_L2C
cpu1_L1D
cpu1_L1D
cpu1_L2C
cpu1_L1D
cpu1_L1D
cpu1_L2C
cpu1_L1D
cpu1_L2C
cpu1_L2C
cpu1_L1D
cpu1_L1D
cpu1_L2C
cpu1_L2C
cpu1_L1D
cpu1_L2C
cpu1_L1D
cpu1_L2C
cpu1_L1D
cpu1_L2C
cpu1_L2C
cpu1_L1D
cpu1_L2C
cpu1_L1D
cpu1_L2C
cpu1_L2C
cpu1_L1D
cpu1_L2C
cpu1_L2C
cpu1_L1D
cpu1_L1D
cpu1_L2C
cpu1_L2C
cpu1_L1D
cpu1_L2C
cpu1_L2C
cpu1_L1D
cpu1_L1D
cpu1_L1D
cpu1_L1D
cpu1_L2C
cpu1_L2C
cpu1_L1D
cpu1_L2C
cpu1_L2C
cpu1_L1D
cpu1_L2C
cpu1_L2C
cpu1_L1D
cpu1_L2C
cpu1_L1D
cpu1_L2C
cpu1_L1D
cpu1_L2C
cpu1_L1D
cpu1_L2C
cpu1_L1D
cpu1_L2C
cpu1_L1D
cpu1_L1D
cpu1_L2C
cpu1_L2C
cpu1_L1D
cpu1_L2C
cpu1_L1D
cpu1_L2C
cpu1_L1D
cpu1_L2C
cpu1_L1D
cpu1_L1D
cpu1_L1D
cpu1_L2C
cpu1_L1D
cpu1_L2C
cpu1_L1D
cpu1_L1D
cpu1_L2C
cpu1_L2C
cpu1_L1D
cpu1_L2C
cpu1_L2C
cpu1_L1D
cpu1_L1D
cpu1_L1D
cpu1_L1D
cpu1_L1D
cpu1_L2C
cpu1_L2C
cpu1_L2C
cpu1_L2C
cpu1_L1D
cpu1_L2C
cpu1_L1D
cpu1_L1D
cpu1_L1D
cpu1_L1D
cpu1_L1D
cpu1_L2C
cpu1_L1D
cpu1_L1D
cpu1_L2C
cpu1_L2C
cpu1_L2C
cpu1_L1D
cpu1_L1D
cpu1_L1D
cpu1_L1D
cpu1_L1D
cpu1_L2C
cpu1_L1D
cpu1_L1D
cpu1_L2C
cpu1_L1D
cpu1_L1D
cpu1_L1D
cpu1_L1D
cpu1_L2C
cpu1_L1D
cpu1_L1D
cpu1_L1D
cpu1_L1D
cpu1_L1D
cpu1_L1D
cpu1_L2C
cpu1_L2C
cpu1_L1D
cpu1_L2C
cpu1_L1D
cpu1_L2C
cpu1_L1D
cpu1_L2C
cpu1_L1D
cpu1_L1D
cpu1_L1D
cpu1_L1D
cpu1_L2C
cpu1_L1D
cpu1_L1D
cpu1_L2C
cpu1_L1D
cpu1_L1D
cpu1_L1D
cpu1_L2C
cpu1_L2C
cpu1_L1D
cpu1_L2C
cpu1_L1D
cpu1_L2C
cpu1_L2C
cpu1_L2C
cpu1_L2C
cpu1_L1D
cpu1_L2C
cpu1_L1D
cpu1_L2C
cpu1_L2C
cpu1_L1D
cpu1_L1D
cpu1_L2C
cpu1_L1D
cpu1_L2C
cpu1_L1D
cpu1_L2C
cpu1_L1D
cpu1_L2C
cpu1_L2C
cpu1_L2C
cpu1_L1D
cpu1_L1D
cpu1_L2C
cpu1_L1D
cpu1_L1D
cpu1_L1D
cpu1_L2C
cpu1_L1D
cpu1_L1D
cpu1_L2C
cpu1_L2C
cpu1_L1D
cpu1_L1D
cpu1_L2C
cpu1_L2C
cpu1_L1D
cpu1_L1D
cpu1_L1D
cpu1_L2C
cpu1_L1D
cpu1_L2C
cpu1_L1D
cpu1_L2C
cpu1_L1D
cpu1_L2C
cpu1_L1D
cpu1_L1D
cpu1_L1D
cpu1_DTLB
cpu1_L1D
cpu1_L1D
cpu1_L1D
cpu1_L1D
cpu1_L1D
cpu1_L1D
cpu1_L2C
cpu1_L1D
cpu1_L2C
cpu1_L1D
cpu1_L1D
cpu1_L1D
cpu1_L1D
cpu1_L1D
cpu1_L2C
cpu1_L1D
cpu1_L1D
cpu1_L2C
cpu1_L1D
cpu1_L1D
cpu1_L1D
cpu1_L2C
cpu1_L1D
cpu1_L1D
cpu1_L2C
cpu1_L1D
cpu1_L1D
cpu1_L2C
cpu1_L1D
cpu1_L1D
cpu1_L2C
cpu1_L1D
cpu1_L2C
cpu1_L2C
cpu1_L2C
cpu1_L1D
cpu1_L1D
cpu1_L1D
cpu1_L2C
cpu1_L1D
cpu1_L2C
cpu1_L1D
cpu1_L1D
cpu1_L1D
cpu1_L1D
cpu1_L1D
cpu1_L1D
cpu1_L2C
cpu1_L1D
cpu1_L2C
cpu1_L1D
cpu1_L2C
cpu1_L2C
cpu1_L2C
cpu1_L1D
cpu1_L1D
cpu1_L2C
cpu1_L2C
cpu1_L1D
cpu1_L2C
cpu1_L1D
cpu1_L1D
cpu1_L1D
cpu1_L1D
cpu1_L1D
cpu1_L1D
cpu1_L2C
cpu1_L1D
cpu1_L2C
cpu1_L1D
cpu1_L1D
cpu1_L2C
cpu1_L1D
cpu1_L2C
cpu1_L1D
cpu1_L2C
cpu1_L1D
cpu1_L2C
cpu1_L1D
cpu1_L1D
cpu1_L2C
cpu1_L2C
cpu1_L1D
cpu1_L1D
cpu1_L2C
cpu1_L2C
cpu1_L1D
cpu1_L2C
cpu1_L2C
cpu1_L1D
cpu1_L1D
cpu1_L1D
cpu1_L1D
cpu1_L1D
cpu1_L1D
cpu1_L2C
cpu1_L1D
cpu1_L2C
cpu1_L1D
cpu1_L2C
cpu1_L1D
cpu1_L1D
cpu1_L1D
cpu1_L1D
cpu1_L1D
cpu1_L2C
cpu1_L1D
cpu1_L1D
cpu1_L1D
cpu1_L2C
cpu1_L1D
cpu1_DTLB
cpu1_L2C
cpu1_L1D
cpu1_L1D
cpu1_L1D
cpu1_L1D
cpu1_L2C
cpu1_L1D
cpu1_L2C
cpu1_L1D
cpu1_L2C
cpu1_L2C
cpu1_L1D
cpu1_L1D
cpu1_L2C
cpu1_L2C
cpu1_L1D
cpu1_L2C
cpu1_L1D
cpu1_L2C
cpu1_L1D
cpu1_L2C
cpu1_L1D
cpu1_L1D
cpu1_L2C
cpu1_L1D
cpu1_L2C
cpu1_L2C
cpu1_L1D
cpu1_L2C
cpu1_L2C
cpu1_L1D
cpu1_L2C
cpu1_L2C
cpu1_DTLB
cpu1_L2C
cpu1_L2C
cpu1_L2C
cpu1_L1D
cpu1_L1D
cpu1_L2C
cpu1_L1D
cpu1_L2C
cpu1_L1D
cpu1_L1D
cpu1_L1D
cpu1_L1D
cpu1_L2C
cpu1_L1D
cpu1_L2C
cpu1_L1D
cpu1_L2C
cpu1_L1D
cpu1_L2C
cpu1_L1D
cpu1_L2C
cpu1_L1D
cpu1_L1D
cpu1_L1D
cpu1_L1D
cpu1_L2C
cpu1_L1D
cpu1_DTLB
cpu1_L1D
cpu1_L2C
cpu1_L1D
cpu1_L1D
cpu1_L2C
cpu1_L2C
cpu1_L1D
cpu1_L2C
cpu1_L1D
cpu1_L2C
cpu1_L2C
cpu1_L1D
cpu1_L2C
cpu1_L2C
cpu1_L2C
cpu1_L1D
cpu1_L1D
cpu1_L2C
cpu1_L1D
cpu1_L2C
cpu1_L1D
cpu1_L1D
cpu1_L2C
cpu1_L2C
cpu1_L2C
cpu1_L2C
cpu1_L1D
cpu1_L1D
cpu1_L2C
cpu1_L1D
cpu1_L1D
cpu1_L1D
cpu1_L1D
cpu1_L1D
cpu1_L2C
cpu1_L1D
cpu1_L1D
cpu1_L1D
cpu1_L2C
cpu1_L2C
cpu1_L2C
cpu1_L1D
cpu1_L2C
cpu1_L2C
cpu1_L1D
cpu1_L1D
cpu1_L2C
cpu1_L1D
cpu1_L2C
cpu1_L2C
cpu1_L1D
cpu1_L2C
cpu1_L2C
cpu1_L2C
cpu1_L2C
cpu1_L2C
cpu1_L2C
cpu1_L2C
cpu1_L2C
cpu1_L1D
cpu1_L2C
cpu1_L1D
cpu1_L2C
cpu1_L1D
cpu1_L1D
cpu1_L1D
cpu1_L2C
cpu1_L1D
cpu1_L1D
cpu1_L2C
cpu1_L2C
cpu1_L2C
cpu1_L1D
cpu1_L1D
cpu1_L1D
cpu1_L2C
cpu1_L2C
cpu1_L2C
cpu1_L1D
cpu1_L1D
cpu1_L1D
cpu1_L2C
cpu1_L1D
cpu1_L1D
cpu1_L2C
cpu1_L1D
cpu1_L1D
cpu1_L2C
cpu1_L2C
cpu1_L2C
cpu1_L1D
cpu1_L1D
cpu1_L1D
cpu1_L1D
cpu1_L2C
cpu1_L1D
cpu1_L1D
cpu1_L2C
cpu1_L1D
cpu1_L1D
cpu1_L2C
cpu1_L1D
cpu1_L2C
cpu1_L1D
cpu1_L1D
cpu1_L1D
cpu1_L1D
cpu1_L1D
cpu1_L1D
cpu1_L1D
cpu1_L1D
cpu1_L2C
cpu1_L2C
cpu1_L2C
cpu1_L1D
cpu1_L2C
cpu1_DTLB
cpu1_L1D
cpu1_L1D
cpu1_L2C
cpu1_L1D
cpu1_L2C
cpu1_L1D
cpu1_L1D
cpu1_L2C
cpu1_L2C
cpu1_L1D
cpu1_L1D
cpu1_L1D
cpu1_L2C
cpu1_L1D
cpu1_L1D
cpu1_L1D
cpu1_L1D
cpu1_L1D
cpu1_L2C
cpu1_L1D
cpu1_L1D
cpu1_L2C
cpu1_L2C
cpu1_L2C
cpu1_L1D
cpu1_L2C
cpu1_L1D
cpu1_L1D
cpu1_L1D
cpu1_L2C
cpu1_L1D
cpu1_L2C
cpu1_L1D
cpu1_DTLB
cpu1_L1D
cpu1_L1D
cpu1_L1D
cpu1_L1D
cpu1_L1D
cpu1_L2C
cpu1_L1D
cpu1_L1D
cpu1_L1D
cpu1_L2C
cpu1_L1D
cpu1_L1D
cpu1_L2C
cpu1_L2C
cpu1_L1D
cpu1_L2C
cpu1_L2C
cpu1_L2C
cpu1_L2C
cpu1_L2C
cpu1_L1D
cpu1_L1D
cpu1_L2C
cpu1_L2C
cpu1_L2C
cpu1_L1D
cpu1_L1D
cpu1_L2C
cpu1_L1D
cpu1_L1D
cpu1_L2C
cpu1_L1D
cpu1_L2C
cpu1_L2C
cpu1_L1D
cpu1_L2C
cpu1_L1D
cpu1_DTLB
cpu1_L2C
cpu1_L2C
cpu1_L2C
cpu1_L2C
cpu1_L1D
cpu1_L2C
cpu1_L2C
cpu1_L1D
cpu1_L2C
cpu1_L1D
cpu1_L1D
cpu1_L2C
cpu1_L1D
cpu1_L2C
cpu1_L2C
cpu1_L1D
cpu1_L1D
cpu1_L1D
cpu1_L2C
cpu1_L2C
cpu1_L1D
cpu1_L1D
cpu1_L1D
cpu1_L1D
cpu1_L2C
cpu1_L1D
cpu1_L2C
cpu1_L1D
cpu1_L1D
cpu1_L1D
cpu1_L1D
cpu1_L2C
cpu1_L2C
cpu1_L1D
cpu1_L2C
cpu1_L1D
cpu1_L2C
cpu1_L2C
cpu1_L1D
cpu1_L2C
cpu1_L2C
cpu1_L1D
cpu1_L2C
cpu1_L1D
cpu1_L2C
cpu1_L1D
cpu1_L1D
cpu1_L1D
cpu1_L1D
cpu1_L2C
cpu1_L1D
cpu1_L2C
cpu1_L1D
cpu1_L2C
cpu1_L1D
cpu1_L1D
cpu1_L1D
cpu1_L1D
cpu1_L1D
cpu1_L1D
cpu1_L1D
cpu1_L2C
cpu1_L1D
cpu1_L1D
cpu1_L1D
cpu1_L2C
cpu1_L1D
cpu1_L2C
cpu1_L1D
cpu1_L1D
cpu1_L2C
cpu1_L1D
cpu1_L2C
cpu1_L2C
cpu1_L2C
cpu1_L1D
cpu1_L2C
cpu1_L2C
cpu1_L2C
cpu1_L2C
cpu1_L1D
cpu1_L2C
cpu1_L1D
cpu1_L2C
cpu1_L1D
cpu1_L1D
cpu1_L1D
cpu1_L2C
cpu1_L1D
cpu1_L2C
cpu1_L2C
cpu1_L2C
cpu1_L1D
cpu1_L2C
cpu1_L2C
cpu1_L2C
cpu1_L2C
cpu1_L1D
cpu1_L1D
cpu1_L2C
cpu1_L1D
cpu1_L2C
cpu1_L2C
cpu1_L1D
cpu1_L2C
cpu1_L2C
cpu1_L1D
cpu1_L2C
cpu1_L2C
cpu1_L1D
cpu1_L2C
cpu1_L1D
cpu1_L1D
cpu1_L2C
cpu1_L2C
cpu1_L1D
cpu1_L2C
cpu1_L2C
cpu1_L1D
cpu1_L2C
cpu1_L2C
cpu1_L2C
cpu1_L2C
cpu1_L2C
cpu1_L1D
cpu1_L2C
cpu1_L1D
cpu1_L1D
cpu1_L2C
cpu1_L2C
cpu1_L1D
cpu1_L2C
cpu1_L1D
cpu1_L2C
cpu1_L1D
cpu1_L1D
cpu1_L1D
cpu1_L2C
cpu1_L1D
cpu1_L2C
cpu1_L1D
cpu1_L2C
cpu1_L1D
cpu1_L1D
cpu1_L1D
cpu1_L1D
cpu1_L2C
cpu1_L1D
cpu1_L2C
cpu1_L1D
cpu1_L2C
cpu1_L2C
cpu1_L1D
cpu1_L1D
cpu1_L1D
cpu1_L2C
cpu1_L2C
cpu1_L1D
cpu1_L2C
cpu1_L1D
cpu1_L1D
cpu1_L1D
cpu1_L2C
cpu1_L1D
cpu1_L2C
cpu1_L2C
cpu1_L2C
cpu1_L1D
cpu1_L2C
cpu1_L1D
cpu1_L2C
cpu1_L2C
cpu1_L1D
cpu1_L1D
cpu1_L2C
cpu1_L1D
cpu1_L1D
cpu1_L2C
cpu1_L2C
cpu1_L1D
cpu1_L2C
cpu1_L2C
cpu1_L2C
cpu1_L2C
cpu1_L1D
cpu1_L2C
cpu1_L2C
cpu1_L2C
cpu1_L2C
cpu1_L1D
cpu1_L2C
cpu1_L1D
cpu1_L2C
cpu1_L2C
cpu1_L2C
cpu1_L1D
cpu1_L2C
cpu1_L1D
cpu1_L2C
cpu1_L1D
cpu1_L2C
cpu1_L1D
cpu1_L1D
cpu1_L2C
cpu1_L1D
cpu1_L2C
cpu1_L1D
cpu1_L2C
cpu1_L1D
cpu1_L1D
cpu1_L1D
cpu1_L1D
cpu1_L2C
cpu1_L2C
cpu1_L2C
cpu1_L1D
cpu1_L2C
cpu1_L2C
cpu1_L1D
cpu1_L2C
cpu1_L2C
cpu1_L2C
cpu1_L1D
cpu1_L1D
cpu1_L1D
cpu1_L1D
cpu1_L2C
cpu1_L1D
cpu1_L2C
cpu1_L1D
cpu1_L1D
cpu1_L2C
cpu1_L2C
cpu1_L1D
cpu1_L1D
cpu1_L2C
cpu1_L1D
cpu1_L1D
cpu1_L1D
cpu1_L1D
cpu1_L1D
cpu1_L1D
cpu1_L1D
cpu1_L1D
cpu1_L2C
cpu1_L1D
cpu1_L2C
cpu1_L2C
cpu1_L1D
cpu1_L2C
cpu1_L1D
cpu1_L1D
cpu1_L1D
cpu1_L2C
cpu1_L1D
cpu1_L2C
cpu1_L1D
cpu1_L2C
cpu1_L1D
cpu1_L2C
cpu1_L2C
cpu1_L2C
cpu1_L2C
cpu1_L2C
cpu1_L1D
cpu1_L2C
cpu1_L2C
cpu1_L1D
cpu1_L1D
cpu1_L2C
cpu1_L2C
cpu1_L1D
cpu1_L1D
cpu1_L2C
cpu1_L1D
cpu1_L2C
cpu1_L1D
cpu1_L1D
cpu1_L2C
cpu1_L1D
cpu1_L1D
cpu1_L2C
cpu1_L1D
cpu1_L1D
cpu1_L1D
cpu1_L1D
cpu1_L1D
cpu1_L1D
cpu1_L2C
cpu1_L1D
cpu1_L2C
cpu1_L1D
cpu1_L2C
cpu1_L2C
cpu1_L1D
cpu1_L2C
cpu1_L1D
cpu1_L2C
cpu1_L2C
cpu1_L1D
cpu1_L2C
cpu1_L2C
cpu1_DTLB
cpu1_L2C
cpu1_L1D
cpu1_L2C
cpu1_L2C
cpu1_L2C
cpu1_L1D
cpu1_L2C
cpu1_L2C
cpu1_L1D
cpu1_L2C
cpu1_L1D
cpu1_L1D
cpu1_L2C
cpu1_L1D
cpu1_L2C
cpu1_L2C
cpu1_L2C
cpu1_L2C
cpu1_L1D
cpu1_L1D
cpu1_L2C
cpu1_L1D
cpu1_L1D
cpu1_L2C
cpu1_L1D
cpu1_L2C
cpu1_L1D
cpu1_L2C
cpu1_L1D
cpu1_L2C
cpu1_L1D
cpu1_L1D
cpu1_L2C
cpu1_L1D
cpu1_L2C
cpu1_L1D
cpu1_L1D
cpu1_L2C
cpu1_L1D
cpu1_L1D
cpu1_L1D
cpu1_L1D
cpu1_L1D
cpu1_L1D
cpu1_L2C
cpu1_L1D
cpu1_L2C
cpu1_L1D
cpu1_L2C
cpu1_L2C
cpu1_L2C
cpu1_L1D
cpu1_L2C
cpu1_L2C
cpu1_L1D
cpu1_L2C
cpu1_L2C
cpu1_L1D
cpu1_L2C
cpu1_L1D
cpu1_L1D
cpu1_L2C
cpu1_L2C
cpu1_L2C
cpu1_L1D
cpu1_L1D
cpu1_L1D
cpu1_L2C
cpu1_L1D
cpu1_L2C
cpu1_L2C
cpu1_L1D
cpu1_L2C
cpu1_L2C
cpu1_L2C
cpu1_L2C
cpu1_L2C
cpu1_L2C
cpu1_L1D
cpu1_L2C
cpu1_L1D
cpu1_L2C
cpu1_L1D
cpu1_L1D
cpu1_L2C
cpu1_L2C
cpu1_L1D
cpu1_L2C
cpu1_L2C
cpu1_L1D
cpu1_L2C
cpu1_L1D
cpu1_DTLB
cpu1_L2C
cpu1_L1D
cpu1_L1D
cpu1_L2C
cpu1_L1D
cpu1_L1D
cpu1_L1D
cpu1_L1D
cpu1_L2C
cpu1_L1D
cpu1_L2C
cpu1_L1D
cpu1_L1D
cpu1_L2C
cpu1_L1D
cpu1_L1D
cpu1_L2C
cpu1_L1D
cpu1_L2C
cpu1_L2C
cpu1_L1D
cpu1_L1D
cpu1_L1D
cpu1_L2C
cpu1_L1D
cpu1_DTLB
cpu1_L1D
cpu1_L2C
cpu1_L1D
cpu1_L2C
cpu1_L1D
cpu1_L1D
cpu1_L1D
cpu1_L1D
cpu1_L1D
cpu1_L2C
cpu1_L1D
cpu1_L2C
cpu1_L2C
cpu1_L1D
cpu1_L1D
cpu1_L1D
cpu1_L1D
cpu1_L1D
cpu1_L1D
cpu1_L1D
cpu1_L1D
cpu1_L1D
cpu1_L1D
cpu1_L2C
cpu1_L1D
cpu1_L2C
cpu1_L1D
cpu1_L2C
cpu1_L1D
cpu1_L1D
cpu1_L2C
cpu1_L1D
cpu1_L2C
cpu1_L1D
cpu1_L2C
cpu1_L1D
cpu1_L2C
cpu1_L1D
cpu1_L1D
cpu1_L1D
cpu1_L2C
cpu1_L1D
cpu1_L1D
cpu1_L1D
cpu1_L2C
cpu1_L2C
cpu1_L1D
cpu1_L1D
cpu1_L2C
cpu1_L2C
cpu1_L2C
cpu1_L2C
cpu1_L1D
cpu1_L2C
cpu1_L1D
cpu1_L2C
cpu1_L1D
cpu1_L2C
cpu1_L1D
cpu1_L1D
cpu1_L1D
cpu1_L1D
cpu1_L1D
cpu1_L2C
cpu1_L2C
cpu1_L2C
cpu1_L1D
cpu1_L2C
cpu1_L1D
cpu1_L2C
cpu1_L2C
cpu1_L1D
cpu1_L2C
cpu1_L1D
cpu1_L1D
cpu1_L1D
cpu1_L2C
cpu1_L1D
cpu1_L2C
cpu1_L2C
cpu1_L1D
cpu1_L2C
cpu1_L1D
cpu1_L2C
cpu1_L2C
cpu1_L2C
cpu1_L1D
cpu1_L1D
cpu1_L1D
cpu1_L2C
cpu1_L2C
cpu1_L2C
cpu1_L2C
cpu1_L1D
cpu1_L2C
cpu1_L1D
cpu1_L1D
cpu1_L2C
cpu1_L2C
cpu1_L2C
cpu1_L1D
cpu1_L2C
cpu1_L2C
cpu1_L1D
cpu1_L2C
cpu1_L2C
cpu1_L2C
cpu1_L2C
cpu1_L1D
cpu1_L2C
cpu1_L2C
cpu1_L1D
cpu1_L1D
cpu1_L2C
cpu1_L2C
cpu1_L2C
cpu1_L2C
cpu1_L1D
cpu1_L2C
cpu1_L2C
cpu1_L1D
cpu1_L2C
cpu1_L1D
cpu1_L1D
cpu1_L2C
cpu1_L1D
cpu1_L1D
cpu1_L1D
cpu1_L2C
cpu1_L1D
cpu1_L1D
cpu1_L2C
cpu1_L1D
cpu1_L1D
cpu1_L2C
cpu1_L1D
cpu1_L1D
cpu1_L2C
cpu1_L1D
cpu1_L1D
cpu1_L1D
cpu1_L1D
cpu1_L2C
cpu1_L1D
cpu1_L1D
cpu1_L1D
cpu1_L2C
cpu1_L1D
cpu1_L2C
cpu1_L1D
cpu1_L2C
cpu1_L1D
cpu1_L2C
cpu1_L2C
cpu1_L1D
cpu1_L1D
cpu1_L2C
cpu1_L1D
cpu1_L1D
cpu1_L2C
cpu1_L1D
cpu1_L1D
cpu1_L1D
cpu1_L1D
cpu1_L1D
cpu1_L1D
cpu1_L1D
cpu1_DTLB
cpu1_L1D
cpu1_L1D
cpu1_L1D
cpu1_L1D
cpu1_L2C
cpu1_L1D
cpu1_L1D
cpu1_L2C
cpu1_L1D
cpu1_L1D
cpu1_L2C
cpu1_L1D
cpu1_L1D
cpu1_L1D
cpu1_L1D
cpu1_L2C
cpu1_L2C
cpu1_L1D
cpu1_L2C
cpu1_L1D
cpu1_L1D
cpu1_L2C
cpu1_L1D
cpu1_L1D
cpu1_L1D
cpu1_L2C
cpu1_L2C
cpu1_L1D
cpu1_L2C
cpu1_L1D
cpu1_L1D
cpu1_L1D
cpu1_L1D
cpu1_L1D
cpu1_L1D
cpu1_L1D
cpu1_L1D
cpu1_L2C
cpu1_L1D
cpu1_L1D
cpu1_L2C
cpu1_L2C
cpu1_L1D
cpu1_L1D
cpu1_L2C
cpu1_DTLB
cpu1_L1D
cpu1_L2C
cpu1_L2C
cpu1_L2C
cpu1_L2C
cpu1_L1D
cpu1_L1D
cpu1_L2C
cpu1_L1D
cpu1_L1D
cpu1_L1D
cpu1_L1D
cpu1_L1D
cpu1_L1D
cpu1_L1D
cpu1_L2C
cpu1_L2C
cpu1_L1D
cpu1_L2C
cpu1_L2C
cpu1_L2C
cpu1_L1D
cpu1_L1D
cpu1_L2C
cpu1_L2C
cpu1_L1D
cpu1_L2C
cpu1_L1D
cpu1_L1D
cpu1_L1D
cpu1_L2C
cpu1_L1D
cpu1_L2C
cpu1_L1D
cpu1_L1D
cpu1_L1D
cpu1_L1D
cpu1_L2C
cpu1_L1D
cpu1_L2C
cpu1_L1D
cpu1_L2C
cpu1_L1D
cpu1_L2C
cpu1_L1D
cpu1_L2C
cpu1_L2C
cpu1_L2C
cpu1_L2C
cpu1_L1D
cpu1_L2C
cpu1_L1D
cpu1_L2C
cpu1_L2C
cpu1_L1D
cpu1_L1D
cpu1_L1D
cpu1_L1D
cpu1_L2C
cpu1_L2C
cpu1_L1D
cpu1_L2C
cpu1_L1D
cpu1_L2C
cpu1_L1D
cpu1_L2C
cpu1_L2C
cpu1_L1D
cpu1_L2C
cpu1_L1D
cpu1_L2C
cpu1_L1D
cpu1_L2C
cpu1_L2C
cpu1_L1D
cpu1_L2C
cpu1_L1D
cpu1_L1D
cpu1_L1D
cpu1_L2C
cpu1_L1D
cpu1_L2C
cpu1_L2C
cpu1_L2C
cpu1_L2C
cpu1_L2C
cpu1_L1D
cpu1_L2C
cpu1_L1D
cpu1_L1D
cpu1_L1D
cpu1_L2C
cpu1_L1D
cpu1_L2C
cpu1_L2C
cpu1_L2C
cpu1_L2C
cpu1_L1D
cpu1_L2C
cpu1_L1D
cpu1_L1D
cpu1_L2C
cpu1_L2C
cpu1_L1D
cpu1_L1D
cpu1_L2C
cpu1_L1D
cpu1_L1D
cpu1_L1D
cpu1_L2C
cpu1_L1D
cpu1_L2C
cpu1_L2C
cpu1_L2C
cpu1_L2C
cpu1_L1D
cpu1_L1D
cpu1_L2C
cpu1_L1D
cpu1_L1D
cpu1_L2C
cpu1_L1D
cpu1_L1D
cpu1_L2C
cpu1_L2C
cpu1_L1D
cpu1_L2C
cpu1_L2C
cpu1_L2C
cpu1_L2C
cpu1_L1D
cpu1_L2C
cpu1_L1D
cpu1_L2C
cpu1_L1D
cpu1_L2C
cpu1_L2C
cpu1_L2C
cpu1_L2C
cpu1_L1D
cpu1_L2C
cpu1_L1D
cpu1_L1D
cpu1_L2C
cpu1_L2C
cpu1_L1D
cpu1_L2C
cpu1_L1D
cpu1_L2C
cpu1_L2C
cpu1_L1D
cpu1_L1D
cpu1_L2C
cpu1_L1D
cpu1_L2C
cpu1_L1D
cpu1_L1D
cpu1_L2C
cpu1_L1D
cpu1_L1D
cpu1_L1D
cpu1_L1D
cpu1_L1D
cpu1_L2C
cpu1_L1D
cpu1_L2C
cpu1_L2C
cpu1_L2C
cpu1_L2C
cpu1_L2C
cpu1_L2C
cpu1_L1D
cpu1_L1D
cpu1_L1D
cpu1_L2C
cpu1_L1D
cpu1_L2C
cpu1_L2C
cpu1_L2C
cpu1_L1D
cpu1_L2C
cpu1_L1D
cpu1_L2C
cpu1_L2C
cpu1_L1D
cpu1_L2C
cpu1_L2C
cpu1_L2C
cpu1_L2C
cpu1_L2C
cpu1_L1D
cpu1_L1D
cpu1_L1D
cpu1_L1D
cpu1_L2C
cpu1_L1D
cpu1_L2C
cpu1_L2C
cpu1_L1D
cpu1_L1D
cpu1_L1D
cpu1_L2C
cpu1_L1D
cpu1_L1D
cpu1_L1D
cpu1_L2C
cpu1_L1D
cpu1_L1D
cpu1_L2C
cpu1_L1D
cpu1_L2C
cpu1_L1D
cpu1_L1D
cpu1_L2C
cpu1_L1D
cpu1_L1D
cpu1_L2C
cpu1_L2C
cpu1_L1D
cpu1_L1D
cpu1_L1D
cpu1_L2C
cpu1_L2C
cpu1_L1D
cpu1_L2C
cpu1_L1D
cpu1_L1D
cpu1_L2C
cpu1_L1D
cpu1_L1D
cpu1_L1D
cpu1_L2C
cpu1_L2C
cpu1_L1D
cpu1_L2C
cpu1_L1D
cpu1_L2C
cpu1_L2C
cpu1_L1D
cpu1_L1D
cpu1_L1D
cpu1_L2C
cpu1_L1D
cpu1_L2C
cpu1_L2C
cpu1_L2C
cpu1_L1D
cpu1_L2C
cpu1_L1D
cpu1_L2C
cpu1_L1D
cpu1_L2C
cpu1_L1D
cpu1_L1D
cpu1_L1D
cpu1_L2C
cpu1_L1D
cpu1_L2C
cpu1_L2C
cpu1_L1D
cpu1_L1D
cpu1_L1D
cpu1_L2C
cpu1_L2C
cpu1_L2C
cpu1_L1D
cpu1_L2C
cpu1_L1D
cpu1_L1D
cpu1_L2C
cpu1_L1D
cpu1_DTLB
cpu1_L2C
cpu1_L2C
cpu1_L1D
cpu1_L1D
cpu1_L1D
cpu1_L1D
cpu1_L1D
cpu1_L1D
cpu1_DTLB
cpu1_L2C
cpu1_L1D
cpu1_L2C
cpu1_L1D
cpu1_L1D
cpu1_L1D
cpu1_L1D
cpu1_L2C
cpu1_L1D
cpu1_L1D
cpu1_L2C
cpu1_L2C
cpu1_L1D
cpu1_L1D
cpu1_L2C
cpu1_L2C
cpu1_L1D
cpu1_L2C
cpu1_L1D
cpu1_L2C
cpu1_L1D
cpu1_L2C
cpu1_L1D
cpu1_L1D
cpu1_L1D
cpu1_L1D
cpu1_L2C
cpu1_L1D
cpu1_L2C
cpu1_L1D
cpu1_L2C
cpu1_L1D
cpu1_L2C
cpu1_L1D
cpu1_L1D
cpu1_L1D
cpu1_L2C
cpu1_L2C
cpu1_L2C
cpu1_L1D
cpu1_L1D
cpu1_L2C
cpu1_L2C
cpu1_L1D
cpu1_L2C
cpu1_L1D
cpu1_L1D
cpu1_L2C
cpu1_L1D
cpu1_L1D
cpu1_L1D
cpu1_L2C
cpu1_L1D
cpu1_L1D
cpu1_L1D
cpu1_L2C
cpu1_L1D
cpu1_L2C
cpu1_L1D
cpu1_L1D
cpu1_L1D
cpu1_L1D
cpu1_L2C
cpu1_L2C
cpu1_L1D
cpu1_L1D
cpu1_L1D
cpu1_L1D
cpu1_L1D
cpu1_DTLB
cpu1_L1D
cpu1_L1D
cpu1_L1D
cpu1_L2C
cpu1_L2C
cpu1_L1D
cpu1_L1D
cpu1_L1D
cpu1_L1D
cpu1_L1D
cpu1_L2C
cpu1_L2C
cpu1_L2C
cpu1_L1D
cpu1_L1D
cpu1_L1D
cpu1_L2C
cpu1_L1D
cpu1_L1D
cpu1_L1D
cpu1_L2C
cpu1_L1D
cpu1_L1D
cpu1_L2C
cpu1_L1D
cpu1_L2C
cpu1_L1D
cpu1_L1D
cpu1_L1D
cpu1_L1D
cpu1_L2C
cpu1_L1D
cpu1_L2C
cpu1_L2C
cpu1_L2C
cpu1_L1D
cpu1_L1D
cpu1_L1D
cpu1_L1D
cpu1_L1D
cpu1_L1D
cpu1_DTLB
cpu1_L1D
cpu1_L2C
cpu1_L2C
cpu1_L1D
cpu1_L2C
cpu1_L1D
cpu1_L1D
cpu1_L1D
cpu1_L2C
cpu1_L1D
cpu1_L2C
cpu1_L2C
cpu1_L1D
cpu1_L1D
cpu1_L1D
cpu1_L2C
cpu1_L1D
cpu1_L1D
cpu1_L1D
cpu1_L1D
cpu1_L1D
cpu1_L2C
cpu1_L1D
cpu1_L1D
cpu1_L1D
cpu1_L1D
cpu1_L2C
cpu1_L2C
cpu1_L2C
cpu1_L2C
cpu1_L2C
cpu1_L1D
cpu1_L1D
cpu1_L1D
cpu1_L2C
cpu1_L1D
cpu1_L2C
cpu1_L2C
cpu1_L2C
cpu1_L1D
cpu1_L1D
cpu1_L1D
cpu1_L1D
cpu1_L2C
cpu1_L2C
cpu1_L2C
cpu1_L2C
cpu1_L2C
cpu1_L2C
cpu1_L2C
cpu1_L1D
cpu1_L1D
cpu1_L1D
cpu1_L1D
cpu1_L2C
cpu1_L1D
cpu1_L1D
cpu1_L2C
cpu1_L2C
cpu1_L2C
cpu1_L1D
cpu1_L1D
cpu1_L2C
cpu1_L2C
cpu1_DTLB
cpu1_L1D
cpu1_L1D
cpu1_L1D
cpu1_L1D
cpu1_L2C
cpu1_L1D
cpu1_L2C
cpu1_L1D
cpu1_L1D
cpu1_L2C
cpu1_L1D
cpu1_L2C
cpu1_L1D
cpu1_L1D
cpu1_L2C
cpu1_L2C
cpu1_L1D
cpu1_L2C
cpu1_L1D
cpu1_L1D
cpu1_L2C
cpu1_L1D
cpu1_L2C
cpu1_L1D
cpu1_L2C
cpu1_L2C
cpu1_L1D
cpu1_L2C
cpu1_L1D
cpu1_L2C
cpu1_L1D
cpu1_L1D
cpu1_L2C
cpu1_L2C
cpu1_L2C
cpu1_L1D
cpu1_L2C
cpu1_L2C
cpu1_L1D
cpu1_L1D
cpu1_L2C
cpu1_L1D
cpu1_L2C
cpu1_L1D
cpu1_L1D
cpu1_L1D
cpu1_L2C
cpu1_L2C
cpu1_L1D
cpu1_L2C
cpu1_L2C
cpu1_L2C
cpu1_L1D
cpu1_L1D
cpu1_L2C
cpu1_L1D
cpu1_L1D
cpu1_L2C
cpu1_L1D
cpu1_L2C
cpu1_L2C
cpu1_L1D
cpu1_L2C
cpu1_L2C
cpu1_L2C
cpu1_DTLB
cpu1_L2C
cpu1_L2C
cpu1_L2C
cpu1_L2C
cpu1_L1D
cpu1_L2C
cpu1_L2C
cpu1_L2C
cpu1_L2C
cpu1_L1D
cpu1_L2C
cpu1_L2C
cpu1_L2C
cpu1_L1D
cpu1_L2C
cpu1_L1D
cpu1_L2C
cpu1_L2C
cpu1_L2C
cpu1_L1D
cpu1_L2C
cpu1_L1D
cpu1_L2C
cpu1_L1D
cpu1_L1D
cpu1_L1D
cpu1_L2C
cpu1_L2C
cpu1_L1D
cpu1_L2C
cpu1_L2C
cpu1_L1D
cpu1_L2C
cpu1_L1D
cpu1_L2C
cpu1_L2C
cpu1_L2C
cpu1_L2C
cpu1_L2C
cpu1_L1D
cpu1_L2C
cpu1_L2C
cpu1_L1D
cpu1_L1D
cpu1_L1D
cpu1_L2C
cpu1_L1D
cpu1_L1D
cpu1_L2C
cpu1_L1D
cpu1_L1D
cpu1_L1D
cpu1_L1D
cpu1_L2C
cpu1_L1D
cpu1_L1D
cpu1_L2C
cpu1_L2C
cpu1_L1D
cpu1_L2C
cpu1_L1D
cpu1_L2C
cpu1_L1D
cpu1_L2C
cpu1_L2C
cpu1_L1D
cpu1_L2C
cpu1_L1D
cpu1_L2C
cpu1_L1D
cpu1_L2C
cpu1_L1D
cpu1_L2C
cpu1_L2C
cpu1_L1D
cpu1_L2C
cpu1_L1D
cpu1_L2C
cpu1_L1D
cpu1_L2C
cpu1_L1D
cpu1_L1D
cpu1_L2C
cpu1_L1D
cpu1_L2C
cpu1_L1D
cpu1_L1D
cpu1_L2C
cpu1_L1D
cpu1_L2C
cpu1_L1D
cpu1_L2C
cpu1_L1D
cpu1_L2C
cpu1_L1D
cpu1_L1D
cpu1_L1D
cpu1_L2C
cpu1_L2C
cpu1_L1D
cpu1_L2C
cpu1_L1D
cpu1_L2C
cpu1_L1D
cpu1_L1D
cpu1_L2C
cpu1_L2C
cpu1_L1D
cpu1_L2C
cpu1_L1D
cpu1_L2C
cpu1_L1D
cpu1_L2C
cpu1_L1D
cpu1_L2C
cpu1_L1D
cpu1_L2C
cpu1_L2C
cpu1_L1D
cpu1_L1D
cpu1_L2C
cpu1_L1D
cpu1_L1D
cpu1_L2C
cpu1_L2C
cpu1_L2C
cpu1_L1D
cpu1_L1D
cpu1_L2C
cpu1_L2C
cpu1_L1D
cpu1_L2C
cpu1_L1D
cpu1_L2C
cpu1_L1D
cpu1_L1D
cpu1_L2C
cpu1_L1D
cpu1_L2C
cpu1_L1D
cpu1_L1D
cpu1_L2C
cpu1_L1D
cpu1_L2C
cpu1_L1D
cpu1_L1D
cpu1_L2C
cpu1_L1D
cpu1_L2C
cpu1_L1D
cpu1_L2C
cpu1_L2C
cpu1_L1D
cpu1_L1D
cpu1_L2C
cpu1_L2C
cpu1_L2C
cpu1_L2C
cpu1_L2C
cpu1_L2C
cpu1_L2C
cpu1_L2C
cpu1_L1D
cpu1_L1D
cpu1_L2C
cpu1_L1D
cpu1_L1D
cpu1_L2C
cpu1_L2C
cpu1_L2C
cpu1_L1D
cpu1_L2C
cpu1_L1D
cpu1_L2C
cpu1_L2C
cpu1_L1D
cpu1_L1D
cpu1_L1D
cpu1_L1D
cpu1_L1D
cpu1_L2C
cpu1_L2C
cpu1_L1D
cpu1_L1D
cpu1_L2C
cpu1_L1D
cpu1_L1D
cpu1_L2C
cpu1_L1D
cpu1_L1D
cpu1_L1D
cpu1_L2C
cpu1_L1D
cpu1_L1D
cpu1_L2C
cpu1_L2C
cpu1_L2C
cpu1_L1D
cpu1_L1D
cpu1_L1D
cpu1_L1D
cpu1_L2C
cpu1_L2C
cpu1_L1D
cpu1_L2C
cpu1_L1D
cpu1_L2C
cpu1_L1D
cpu1_L2C
cpu1_L1D
cpu1_L1D
cpu1_L1D
cpu1_L1D
cpu1_L2C
cpu1_L1D
cpu1_L1D
cpu1_L1D
cpu1_L1D
cpu1_L1D
cpu1_L2C
cpu1_L2C
cpu1_L1D
cpu1_L2C
cpu1_L1D
cpu1_L2C
cpu1_L2C
cpu1_L2C
cpu1_L1D
cpu1_L2C
cpu1_L2C
cpu1_L1D
cpu1_L2C
cpu1_L2C
cpu1_L1D
cpu1_L2C
cpu1_L1D
cpu1_L1D
cpu1_L2C
cpu1_L2C
cpu1_L2C
cpu1_L1D
cpu1_L2C
cpu1_L1D
cpu1_L1D
cpu1_L1D
cpu1_L1D
cpu1_L1D
cpu1_L1D
cpu1_L1D
cpu1_L1D
cpu1_L1D
cpu1_L1D
cpu1_L1D
cpu1_DTLB
cpu1_L2C
cpu1_L2C
cpu1_L2C
cpu1_L2C
cpu1_L2C
cpu1_L1D
cpu1_L2C
cpu1_L1D
cpu1_L2C
cpu1_L2C
cpu1_L1D
cpu1_L1D
cpu1_L1D
cpu1_L2C
cpu1_L1D
cpu1_L1D
cpu1_L2C
cpu1_L2C
cpu1_L1D
cpu1_L2C
cpu1_L2C
cpu1_L1D
cpu1_L2C
cpu1_L2C
cpu1_L2C
cpu1_L1D
cpu1_L2C
cpu1_L1D
cpu1_L2C
cpu1_L1D
cpu1_L2C
cpu1_L2C
cpu1_L1D
cpu1_L2C
cpu1_L1D
cpu1_L2C
cpu1_L1D
cpu1_L1D
cpu1_L2C
cpu1_L1D
cpu1_L2C
cpu1_L1D
cpu1_L2C
cpu1_L1D
cpu1_L2C
cpu1_L1D
cpu1_L2C
cpu1_L2C
cpu1_L1D
cpu1_L2C
cpu1_L1D
cpu1_L1D
cpu1_L2C
cpu1_L2C
cpu1_L1D
cpu1_L2C
cpu1_L1D
cpu1_L1D
cpu1_L2C
cpu1_L1D
cpu1_L1D
cpu1_L2C
cpu1_L1D
cpu1_L2C
cpu1_L2C
cpu1_L1D
cpu1_L2C
cpu1_L2C
cpu1_L1D
cpu1_L1D
cpu1_L2C
cpu1_L2C
cpu1_L1D
cpu1_L2C
cpu1_L2C
cpu1_L1D
cpu1_L2C
cpu1_L2C
cpu1_L1D
cpu1_L1D
cpu1_L1D
cpu1_L2C
cpu1_L1D
cpu1_L2C
cpu1_L2C
cpu1_L2C
cpu1_L1D
cpu1_L1D
cpu1_L1D
cpu1_L1D
cpu1_L2C
cpu1_L1D
cpu1_L2C
cpu1_L2C
cpu1_L1D
cpu1_L1D
cpu1_L2C
cpu1_L1D
cpu1_L2C
cpu1_L1D
cpu1_L2C
cpu1_L2C
cpu1_L1D
cpu1_L2C
cpu1_L1D
cpu1_L1D
cpu1_L2C
cpu1_L2C
cpu1_L1D
cpu1_L2C
cpu1_L2C
cpu1_L1D
cpu1_L2C
cpu1_L1D
cpu1_L1D
cpu1_L2C
cpu1_L1D
cpu1_L2C
cpu1_L1D
cpu1_L2C
cpu1_L1D
cpu1_L1D
cpu1_L2C
cpu1_L1D
cpu1_L2C
cpu1_L2C
cpu1_L2C
cpu1_L1D
cpu1_L2C
cpu1_L2C
cpu1_L1D
cpu1_L1D
cpu1_L2C
cpu1_L2C
cpu1_L1D
cpu1_L1D
cpu1_L2C
cpu1_L2C
cpu1_L2C
cpu1_L2C
cpu1_DTLB
cpu1_L1D
cpu1_L1D
cpu1_L2C
cpu1_L1D
cpu1_L1D
cpu1_L1D
cpu1_L1D
cpu1_L1D
cpu1_L2C
cpu1_L1D
cpu1_L1D
cpu1_L2C
cpu1_L1D
cpu1_L1D
cpu1_L1D
cpu1_L2C
cpu1_L1D
cpu1_L1D
cpu1_L2C
cpu1_L1D
cpu1_L1D
cpu1_L2C
cpu1_L1D
cpu1_L1D
cpu1_L1D
cpu1_L2C
cpu1_L2C
cpu1_L1D
cpu1_L1D
cpu1_L1D
cpu1_L2C
cpu1_L2C
cpu1_L2C
cpu1_L2C
cpu1_L1D
cpu1_DTLB
cpu1_L2C
cpu1_L1D
cpu1_L2C
cpu1_L1D
cpu1_L2C
cpu1_L1D
cpu1_L2C
cpu1_L2C
cpu1_L1D
cpu1_L1D
cpu1_L2C
cpu1_L1D
cpu1_L1D
cpu1_L1D
cpu1_L2C
cpu1_L1D
cpu1_L1D
cpu1_L2C
cpu1_L2C
cpu1_L2C
cpu1_L1D
cpu1_L1D
cpu1_L1D
cpu1_L1D
cpu1_L1D
cpu1_L1D
cpu1_L1D
cpu1_L2C
cpu1_L1D
cpu1_L1D
cpu1_L1D
cpu1_L1D
cpu1_L1D
cpu1_L1D
cpu1_L2C
cpu1_L2C
cpu1_L1D
cpu1_L1D
cpu1_L2C
cpu1_L1D
cpu1_L2C
cpu1_L1D
cpu1_L2C
cpu1_L1D
cpu1_L1D
cpu1_L2C
cpu1_L1D
cpu1_L2C
cpu1_L2C
cpu1_L2C
cpu1_L1D
cpu1_L1D
cpu1_L2C
cpu1_L1D
cpu1_L1D
cpu1_L1D
cpu1_L2C
cpu1_L1D
cpu1_L2C
cpu1_L1D
cpu1_L1D
cpu1_L1D
cpu1_L1D
cpu1_DTLB
cpu1_L1D
cpu1_L1D
cpu1_L1D
cpu1_L1D
cpu1_L1D
cpu1_L2C
cpu1_L1D
cpu1_L2C
cpu1_L1D
cpu1_L1D
cpu1_L1D
cpu1_L1D
cpu1_L1D
cpu1_L2C
cpu1_L2C
cpu1_L2C
cpu1_L1D
cpu1_L2C
cpu1_L2C
cpu1_L1D
cpu1_L1D
cpu1_L1D
cpu1_L2C
cpu1_L2C
cpu1_L2C
cpu1_L1D
cpu1_L2C
cpu1_L1D
cpu1_L1D
cpu1_L2C
cpu1_L1D
cpu1_L2C
cpu1_L2C
cpu1_L2C
cpu1_L2C
cpu1_L2C
cpu1_L2C
cpu1_L1D
cpu1_L1D
cpu1_L2C
cpu1_L2C
cpu1_L2C
cpu1_L2C
cpu1_L2C
cpu1_L2C
cpu1_L1D
cpu1_L2C
cpu1_L1D
cpu1_L2C
cpu1_L1D
cpu1_L1D
cpu1_L1D
cpu1_L1D
cpu1_L2C
cpu1_L2C
cpu1_L1D
cpu1_L2C
cpu1_L2C
cpu1_L2C
cpu1_L2C
cpu1_L2C
cpu1_L1D
cpu1_L2C
cpu1_L1D
cpu1_L2C
cpu1_L1D
cpu1_L2C
cpu1_L1D
cpu1_L2C
cpu1_L2C
cpu1_L1D
cpu1_L2C
cpu1_L1D
cpu1_L2C
cpu1_L1D
cpu1_L1D
cpu1_L2C
cpu1_L1D
cpu1_L2C
cpu1_L1D
cpu1_L2C
cpu1_L1D
cpu1_L2C
cpu1_L1D
cpu1_L2C
cpu1_L1D
cpu1_L2C
cpu1_L1D
cpu1_L2C
cpu1_L1D
cpu1_L1D
cpu1_L1D
cpu1_L1D
cpu1_L2C
cpu1_L1D
cpu1_L2C
cpu1_L1D
cpu1_L2C
cpu1_L1D
cpu1_L2C
cpu1_L2C
cpu1_L2C
cpu1_L1D
cpu1_L2C
cpu1_L1D
cpu1_L2C
cpu1_L1D
cpu1_L2C
cpu1_L2C
cpu1_L1D
cpu1_L1D
cpu1_L1D
cpu1_L2C
cpu1_L1D
cpu1_L1D
cpu1_L1D
cpu1_L2C
cpu1_L1D
cpu1_L2C
cpu1_L1D
cpu1_L2C
cpu1_L2C
cpu1_L1D
cpu1_L2C
cpu1_L2C
cpu1_L2C
cpu1_L1D
cpu1_L1D
cpu1_L1D
cpu1_L1D
cpu1_L2C
cpu1_L1D
cpu1_L2C
cpu1_L1D
cpu1_L2C
cpu1_L1D
cpu1_L2C
cpu1_L1D
cpu1_L2C
cpu1_L1D
cpu1_L2C
cpu1_L1D
cpu1_L1D
cpu1_L1D
cpu1_L2C
cpu1_L1D
cpu1_L2C
cpu1_L1D
cpu1_L2C
cpu1_L1D
cpu1_L1D
cpu1_L1D
cpu1_L1D
cpu1_L2C
cpu1_L1D
cpu1_L2C
cpu1_L1D
cpu1_L2C
cpu1_L2C
cpu1_L2C
cpu1_L1D
cpu1_L2C
cpu1_L1D
cpu1_L2C
cpu1_L2C
cpu1_L1D
cpu1_L2C
cpu1_L2C
cpu1_L2C
cpu1_L1D
cpu1_L1D
cpu1_L2C
cpu1_L1D
cpu1_L2C
cpu1_L2C
cpu1_L2C
cpu1_L1D
cpu1_L1D
cpu1_L1D
cpu1_L2C
cpu1_L2C
cpu1_L1D
cpu1_L2C
cpu1_L2C
cpu1_L1D
cpu1_L2C
cpu1_L1D
cpu1_L2C
cpu1_L1D
cpu1_L1D
cpu1_L1D
cpu1_L1D
cpu1_L2C
cpu1_L2C
cpu1_L2C
cpu1_L1D
cpu1_L2C
cpu1_L2C
cpu1_L1D
cpu1_L1D
cpu1_L1D
cpu1_L2C
cpu1_L1D
cpu1_L2C
cpu1_L1D
cpu1_L2C
cpu1_L1D
cpu1_L1D
cpu1_L2C
cpu1_L1D
cpu1_L2C
cpu1_L1D
cpu1_L2C
cpu1_L1D
cpu1_L2C
cpu1_L2C
cpu1_L1D
cpu1_L2C
cpu1_L2C
cpu1_L2C
cpu1_L1D
cpu1_L2C
cpu1_L1D
cpu1_L1D
cpu1_L2C
cpu1_L1D
cpu1_L2C
cpu1_L1D
cpu1_L1D
cpu1_L2C
cpu1_L1D
cpu1_L2C
cpu1_L2C
cpu1_L1D
cpu1_L2C
cpu1_L1D
cpu1_L2C
cpu1_L1D
cpu1_L2C
cpu1_L1D
cpu1_L1D
cpu1_L1D
cpu1_L2C
cpu1_L1D
cpu1_L2C
cpu1_L1D
cpu1_L2C
cpu1_L1D
cpu1_L2C
cpu1_L2C
cpu1_L2C
cpu1_L1D
cpu1_L2C
cpu1_L1D
cpu1_L1D
cpu1_L2C
cpu1_L2C
cpu1_L2C
cpu1_L1D
cpu1_L2C
cpu1_L2C
cpu1_L2C
cpu1_L1D
cpu1_L1D
cpu1_L2C
cpu1_L2C
cpu1_L1D
cpu1_L1D
cpu1_L2C
cpu1_L2C
cpu1_L1D
cpu1_L2C
cpu1_L1D
cpu1_L1D
cpu1_L2C
cpu1_L2C
cpu1_L2C
cpu1_L1D
cpu1_L2C
cpu1_L2C
cpu1_L2C
cpu1_L1D
cpu1_L2C
cpu1_L1D
cpu1_L1D
cpu1_L2C
cpu1_L2C
cpu1_L2C
cpu1_L1D
cpu1_L2C
cpu1_L2C
cpu1_L2C
cpu1_L1D
cpu1_L2C
cpu1_L2C
cpu1_L1D
cpu1_L2C
cpu1_L1D
cpu1_L1D
cpu1_L2C
cpu1_L2C
cpu1_L1D
cpu1_L2C
cpu1_L1D
cpu1_L1D
cpu1_L1D
cpu1_L1D
cpu1_L2C
cpu1_L1D
cpu1_L2C
cpu1_L1D
cpu1_L2C
cpu1_L2C
cpu1_L2C
cpu1_L1D
cpu1_L2C
cpu1_L1D
cpu1_L1D
cpu1_L2C
cpu1_L1D
cpu1_L1D
cpu1_L2C
cpu1_L1D
cpu1_L1D
cpu1_L2C
cpu1_L1D
cpu1_L2C
cpu1_L2C
cpu1_L2C
cpu1_L2C
cpu1_L2C
cpu1_L1D
cpu1_L1D
cpu1_L1D
cpu1_L1D
cpu1_L1D
cpu1_L2C
cpu1_L1D
cpu1_L2C
cpu1_L1D
cpu1_L1D
cpu1_L1D
cpu1_L2C
cpu1_L1D
cpu1_L2C
[...]
cpu2_L1I WRITE        ACCESS:          0 HIT:          0 MISS:          0
cpu2_L1I TRANSLATION  ACCESS:          0 HIT:          0 MISS:          0
cpu2_L1I PREFETCH REQUESTED:          0 ISSUED:          0 USEFUL:          0 USELESS:          0
cpu2_L1I AVERAGE MISS LATENCY: 1815 cycles
cpu2_L1I TOTAL        ACCESS:          0 HIT:          0 MISS:          0
cpu2_L1I LOAD         ACCESS:          0 HIT:          0 MISS:          0
cpu2_L1I RFO          ACCESS:          0 HIT:          0 MISS:          0
cpu2_L1I PREFETCH     ACCESS:          0 HIT:          0 MISS:          0
cpu2_L1I WRITE        ACCESS:          0 HIT:          0 MISS:          0
cpu2_L1I TRANSLATION  ACCESS:          0 HIT:          0 MISS:          0
cpu2_L1I PREFETCH REQUESTED:          0 ISSUED:          0 USEFUL:          0 USELESS:          0
cpu2_L1I AVERAGE MISS LATENCY: 1815 cycles
cpu2_L2C TOTAL        ACCESS:          0 HIT:          0 MISS:          0
cpu2_L2C LOAD         ACCESS:          0 HIT:          0 MISS:          0
cpu2_L2C RFO          ACCESS:          0 HIT:          0 MISS:          0
cpu2_L2C PREFETCH     ACCESS:          0 HIT:          0 MISS:          0
cpu2_L2C WRITE        ACCESS:          0 HIT:          0 MISS:          0
cpu2_L2C TRANSLATION  ACCESS:          0 HIT:          0 MISS:          0
cpu2_L2C PREFETCH REQUESTED:          0 ISSUED:          0 USEFUL:          0 USELESS:          0
cpu2_L2C AVERAGE MISS LATENCY: 5176 cycles
cpu2_L2C TOTAL        ACCESS:          0 HIT:          0 MISS:          0
cpu2_L2C LOAD         ACCESS:          0 HIT:          0 MISS:          0
cpu2_L2C RFO          ACCESS:          0 HIT:          0 MISS:          0
cpu2_L2C PREFETCH     ACCESS:          0 HIT:          0 MISS:          0
cpu2_L2C WRITE        ACCESS:          0 HIT:          0 MISS:          0
cpu2_L2C TRANSLATION  ACCESS:          0 HIT:          0 MISS:          0
cpu2_L2C PREFETCH REQUESTED:          0 ISSUED:          0 USEFUL:          0 USELESS:          0
cpu2_L2C AVERAGE MISS LATENCY: 5176 cycles
cpu2_L2C TOTAL        ACCESS:      56209 HIT:      28085 MISS:      28124
cpu2_L2C LOAD         ACCESS:      43436 HIT:      21728 MISS:      21708
cpu2_L2C RFO          ACCESS:       5234 HIT:       2584 MISS:       2650
cpu2_L2C PREFETCH     ACCESS:          0 HIT:          0 MISS:          0
cpu2_L2C WRITE        ACCESS:          0 HIT:          0 MISS:          0
cpu2_L2C TRANSLATION  ACCESS:       7539 HIT:       3773 MISS:       3766
cpu2_L2C PREFETCH REQUESTED:          0 ISSUED:          0 USEFUL:          0 USELESS:          0
cpu2_L2C AVERAGE MISS LATENCY: 5176 cycles
cpu2_L2C TOTAL        ACCESS:          0 HIT:          0 MISS:          0
cpu2_L2C LOAD         ACCESS:          0 HIT:          0 MISS:          0
cpu2_L2C RFO          ACCESS:          0 HIT:          0 MISS:          0
cpu2_L2C PREFETCH     ACCESS:          0 HIT:          0 MISS:          0
cpu2_L2C WRITE        ACCESS:          0 HIT:          0 MISS:          0
cpu2_L2C TRANSLATION  ACCESS:          0 HIT:          0 MISS:          0
cpu2_L2C PREFETCH REQUESTED:          0 ISSUED:          0 USEFUL:          0 USELESS:          0
cpu2_L2C AVERAGE MISS LATENCY: 5176 cycles
cpu2_STLB TOTAL        ACCESS:          0 HIT:          0 MISS:          0
cpu2_STLB LOAD         ACCESS:          0 HIT:          0 MISS:          0
cpu2_STLB RFO          ACCESS:          0 HIT:          0 MISS:          0
cpu2_STLB PREFETCH     ACCESS:          0 HIT:          0 MISS:          0
cpu2_STLB WRITE        ACCESS:          0 HIT:          0 MISS:          0
cpu2_STLB TRANSLATION  ACCESS:          0 HIT:          0 MISS:          0
cpu2_STLB PREFETCH REQUESTED:          0 ISSUED:          0 USEFUL:          0 USELESS:          0
cpu2_STLB AVERAGE MISS LATENCY: 1409 cycles
cpu2_STLB TOTAL        ACCESS:          0 HIT:          0 MISS:          0
cpu2_STLB LOAD         ACCESS:          0 HIT:          0 MISS:          0
cpu2_STLB RFO          ACCESS:          0 HIT:          0 MISS:          0
cpu2_STLB PREFETCH     ACCESS:          0 HIT:          0 MISS:          0
cpu2_STLB WRITE        ACCESS:          0 HIT:          0 MISS:          0
cpu2_STLB TRANSLATION  ACCESS:          0 HIT:          0 MISS:          0
cpu2_STLB PREFETCH REQUESTED:          0 ISSUED:          0 USEFUL:          0 USELESS:          0
cpu2_STLB AVERAGE MISS LATENCY: 1409 cycles
cpu2_STLB TOTAL        ACCESS:      30308 HIT:      15154 MISS:      15154
cpu2_STLB LOAD         ACCESS:      30308 HIT:      15154 MISS:      15154
cpu2_STLB RFO          ACCESS:          0 HIT:          0 MISS:          0
cpu2_STLB PREFETCH     ACCESS:          0 HIT:          0 MISS:          0
cpu2_STLB WRITE        ACCESS:          0 HIT:          0 MISS:          0
cpu2_STLB TRANSLATION  ACCESS:          0 HIT:          0 MISS:          0
cpu2_STLB PREFETCH REQUESTED:          0 ISSUED:          0 USEFUL:          0 USELESS:          0
cpu2_STLB AVERAGE MISS LATENCY: 1409 cycles
cpu2_STLB TOTAL        ACCESS:          0 HIT:          0 MISS:          0
cpu2_STLB LOAD         ACCESS:          0 HIT:          0 MISS:          0
cpu2_STLB RFO          ACCESS:          0 HIT:          0 MISS:          0
cpu2_STLB PREFETCH     ACCESS:          0 HIT:          0 MISS:          0
cpu2_STLB WRITE        ACCESS:          0 HIT:          0 MISS:          0
cpu2_STLB TRANSLATION  ACCESS:          0 HIT:          0 MISS:          0
cpu2_STLB PREFETCH REQUESTED:          0 ISSUED:          0 USEFUL:          0 USELESS:          0
cpu2_STLB AVERAGE MISS LATENCY: 1409 cycles
cpu3_DTLB TOTAL        ACCESS:          0 HIT:          0 MISS:          0
cpu3_DTLB LOAD         ACCESS:          0 HIT:          0 MISS:          0
cpu3_DTLB RFO          ACCESS:          0 HIT:          0 MISS:          0
cpu3_DTLB PREFETCH     ACCESS:          0 HIT:          0 MISS:          0
cpu3_DTLB WRITE        ACCESS:          0 HIT:          0 MISS:          0
cpu3_DTLB TRANSLATION  ACCESS:          0 HIT:          0 MISS:          0
cpu3_DTLB PREFETCH REQUESTED:          0 ISSUED:          0 USEFUL:          0 USELESS:          0
cpu3_DTLB AVERAGE MISS LATENCY: 327.7 cycles
cpu3_DTLB TOTAL        ACCESS:          0 HIT:          0 MISS:          0
cpu3_DTLB LOAD         ACCESS:          0 HIT:          0 MISS:          0
cpu3_DTLB RFO          ACCESS:          0 HIT:          0 MISS:          0
cpu3_DTLB PREFETCH     ACCESS:          0 HIT:          0 MISS:          0
cpu3_DTLB WRITE        ACCESS:          0 HIT:          0 MISS:          0
cpu3_DTLB TRANSLATION  ACCESS:          0 HIT:          0 MISS:          0
cpu3_DTLB PREFETCH REQUESTED:          0 ISSUED:          0 USEFUL:          0 USELESS:          0
cpu3_DTLB AVERAGE MISS LATENCY: 327.7 cycles
cpu3_DTLB TOTAL        ACCESS:          0 HIT:          0 MISS:          0
cpu3_DTLB LOAD         ACCESS:          0 HIT:          0 MISS:          0
cpu3_DTLB RFO          ACCESS:          0 HIT:          0 MISS:          0
cpu3_DTLB PREFETCH     ACCESS:          0 HIT:          0 MISS:          0
cpu3_DTLB WRITE        ACCESS:          0 HIT:          0 MISS:          0
cpu3_DTLB TRANSLATION  ACCESS:          0 HIT:          0 MISS:          0
cpu3_DTLB PREFETCH REQUESTED:          0 ISSUED:          0 USEFUL:          0 USELESS:          0
cpu3_DTLB AVERAGE MISS LATENCY: 327.7 cycles
cpu3_DTLB TOTAL        ACCESS:      72959 HIT:      24806 MISS:      48153
cpu3_DTLB LOAD         ACCESS:      72959 HIT:      24806 MISS:      48153
cpu3_DTLB RFO          ACCESS:          0 HIT:          0 MISS:          0
cpu3_DTLB PREFETCH     ACCESS:          0 HIT:          0 MISS:          0
cpu3_DTLB WRITE        ACCESS:          0 HIT:          0 MISS:          0
cpu3_DTLB TRANSLATION  ACCESS:          0 HIT:          0 MISS:          0
cpu3_DTLB PREFETCH REQUESTED:          0 ISSUED:          0 USEFUL:          0 USELESS:          0
cpu3_DTLB AVERAGE MISS LATENCY: 327.7 cycles
cpu3_ITLB TOTAL        ACCESS:          0 HIT:          0 MISS:          0
cpu3_ITLB LOAD         ACCESS:          0 HIT:          0 MISS:          0
cpu3_ITLB RFO          ACCESS:          0 HIT:          0 MISS:          0
cpu3_ITLB PREFETCH     ACCESS:          0 HIT:          0 MISS:          0
cpu3_ITLB WRITE        ACCESS:          0 HIT:          0 MISS:          0
cpu3_ITLB TRANSLATION  ACCESS:          0 HIT:          0 MISS:          0
cpu3_ITLB PREFETCH REQUESTED:          0 ISSUED:          0 USEFUL:          0 USELESS:          0
cpu3_ITLB AVERAGE MISS LATENCY: 550.6 cycles
cpu3_ITLB TOTAL        ACCESS:          0 HIT:          0 MISS:          0
cpu3_ITLB LOAD         ACCESS:          0 HIT:          0 MISS:          0
cpu3_ITLB RFO          ACCESS:          0 HIT:          0 MISS:          0
cpu3_ITLB PREFETCH     ACCESS:          0 HIT:          0 MISS:          0
cpu3_ITLB WRITE        ACCESS:          0 HIT:          0 MISS:          0
cpu3_ITLB TRANSLATION  ACCESS:          0 HIT:          0 MISS:          0
cpu3_ITLB PREFETCH REQUESTED:          0 ISSUED:          0 USEFUL:          0 USELESS:          0
cpu3_ITLB AVERAGE MISS LATENCY: 550.6 cycles
cpu3_ITLB TOTAL        ACCESS:          0 HIT:          0 MISS:          0
cpu3_ITLB LOAD         ACCESS:          0 HIT:          0 MISS:          0
cpu3_ITLB RFO          ACCESS:          0 HIT:          0 MISS:          0
cpu3_ITLB PREFETCH     ACCESS:          0 HIT:          0 MISS:          0
cpu3_ITLB WRITE        ACCESS:          0 HIT:          0 MISS:          0
cpu3_ITLB TRANSLATION  ACCESS:          0 HIT:          0 MISS:          0
cpu3_ITLB PREFETCH REQUESTED:          0 ISSUED:          0 USEFUL:          0 USELESS:          0
cpu3_ITLB AVERAGE MISS LATENCY: 550.6 cycles
cpu3_ITLB TOTAL        ACCESS:       3499 HIT:        843 MISS:       2656
cpu3_ITLB LOAD         ACCESS:       3499 HIT:        843 MISS:       2656
cpu3_ITLB RFO          ACCESS:          0 HIT:          0 MISS:          0
cpu3_ITLB PREFETCH     ACCESS:          0 HIT:          0 MISS:          0
cpu3_ITLB WRITE        ACCESS:          0 HIT:          0 MISS:          0
cpu3_ITLB TRANSLATION  ACCESS:          0 HIT:          0 MISS:          0
cpu3_ITLB PREFETCH REQUESTED:          0 ISSUED:          0 USEFUL:          0 USELESS:          0
cpu3_ITLB AVERAGE MISS LATENCY: 550.6 cycles
cpu3_L1D TOTAL        ACCESS:          0 HIT:          0 MISS:          0
cpu3_L1D LOAD         ACCESS:          0 HIT:          0 MISS:          0
cpu3_L1D RFO          ACCESS:          0 HIT:          0 MISS:          0
cpu3_L1D PREFETCH     ACCESS:          0 HIT:          0 MISS:          0
cpu3_L1D WRITE        ACCESS:          0 HIT:          0 MISS:          0
cpu3_L1D TRANSLATION  ACCESS:          0 HIT:          0 MISS:          0
cpu3_L1D PREFETCH REQUESTED:          0 ISSUED:          0 USEFUL:          0 USELESS:          0
cpu3_L1D AVERAGE MISS LATENCY: 1582 cycles
cpu3_L1D TOTAL        ACCESS:          0 HIT:          0 MISS:          0
cpu3_L1D LOAD         ACCESS:          0 HIT:          0 MISS:          0
cpu3_L1D RFO          ACCESS:          0 HIT:          0 MISS:          0
cpu3_L1D PREFETCH     ACCESS:          0 HIT:          0 MISS:          0
cpu3_L1D WRITE        ACCESS:          0 HIT:          0 MISS:          0
cpu3_L1D TRANSLATION  ACCESS:          0 HIT:          0 MISS:          0
cpu3_L1D PREFETCH REQUESTED:          0 ISSUED:          0 USEFUL:          0 USELESS:          0
cpu3_L1D AVERAGE MISS LATENCY: 1582 cycles
cpu3_L1D TOTAL        ACCESS:          0 HIT:          0 MISS:          0
cpu3_L1D LOAD         ACCESS:          0 HIT:          0 MISS:          0
cpu3_L1D RFO          ACCESS:          0 HIT:          0 MISS:          0
cpu3_L1D PREFETCH     ACCESS:          0 HIT:          0 MISS:          0
cpu3_L1D WRITE        ACCESS:          0 HIT:          0 MISS:          0
cpu3_L1D TRANSLATION  ACCESS:          0 HIT:          0 MISS:          0
cpu3_L1D PREFETCH REQUESTED:          0 ISSUED:          0 USEFUL:          0 USELESS:          0
cpu3_L1D AVERAGE MISS LATENCY: 1582 cycles
cpu3_L1D TOTAL        ACCESS:     131794 HIT:      35265 MISS:      96529
cpu3_L1D LOAD         ACCESS:      60174 HIT:      19634 MISS:      40540
cpu3_L1D RFO          ACCESS:          0 HIT:          0 MISS:          0
cpu3_L1D PREFETCH     ACCESS:          0 HIT:          0 MISS:          0
cpu3_L1D WRITE        ACCESS:      58790 HIT:       9230 MISS:      49560
cpu3_L1D TRANSLATION  ACCESS:      12830 HIT:       6401 MISS:       6429
cpu3_L1D PREFETCH REQUESTED:          0 ISSUED:          0 USEFUL:          0 USELESS:          0
cpu3_L1D AVERAGE MISS LATENCY: 1582 cycles
cpu3_L1I TOTAL        ACCESS:          0 HIT:          0 MISS:          0
cpu3_L1I LOAD         ACCESS:          0 HIT:          0 MISS:          0
cpu3_L1I RFO          ACCESS:          0 HIT:          0 MISS:          0
cpu3_L1I PREFETCH     ACCESS:          0 HIT:          0 MISS:          0
cpu3_L1I WRITE        ACCESS:          0 HIT:          0 MISS:          0
cpu3_L1I TRANSLATION  ACCESS:          0 HIT:          0 MISS:          0
cpu3_L1I PREFETCH REQUESTED:          0 ISSUED:          0 USEFUL:          0 USELESS:          0
cpu3_L1I AVERAGE MISS LATENCY: 1886 cycles
cpu3_L1I TOTAL        ACCESS:          0 HIT:          0 MISS:          0
cpu3_L1I LOAD         ACCESS:          0 HIT:          0 MISS:          0
cpu3_L1I RFO          ACCESS:          0 HIT:          0 MISS:          0
cpu3_L1I PREFETCH     ACCESS:          0 HIT:          0 MISS:          0
cpu3_L1I WRITE        ACCESS:          0 HIT:          0 MISS:          0
cpu3_L1I TRANSLATION  ACCESS:          0 HIT:          0 MISS:          0
cpu3_L1I PREFETCH REQUESTED:          0 ISSUED:          0 USEFUL:          0 USELESS:          0
cpu3_L1I AVERAGE MISS LATENCY: 1886 cycles
cpu3_L1I TOTAL        ACCESS:          0 HIT:          0 MISS:          0
cpu3_L1I LOAD         ACCESS:          0 HIT:          0 MISS:          0
cpu3_L1I RFO          ACCESS:          0 HIT:          0 MISS:          0
cpu3_L1I PREFETCH     ACCESS:          0 HIT:          0 MISS:          0
cpu3_L1I WRITE        ACCESS:          0 HIT:          0 MISS:          0
cpu3_L1I TRANSLATION  ACCESS:          0 HIT:          0 MISS:          0
cpu3_L1I PREFETCH REQUESTED:          0 ISSUED:          0 USEFUL:          0 USELESS:          0
cpu3_L1I AVERAGE MISS LATENCY: 1886 cycles
cpu3_L1I TOTAL        ACCESS:       4370 HIT:       1018 MISS:       3352
cpu3_L1I LOAD         ACCESS:       4370 HIT:       1018 MISS:       3352
cpu3_L1I RFO          ACCESS:          0 HIT:          0 MISS:          0
cpu3_L1I PREFETCH     ACCESS:          0 HIT:          0 MISS:          0
cpu3_L1I WRITE        ACCESS:          0 HIT:          0 MISS:          0
cpu3_L1I TRANSLATION  ACCESS:          0 HIT:          0 MISS:          0
cpu3_L1I PREFETCH REQUESTED:          0 ISSUED:          0 USEFUL:          0 USELESS:          0
cpu3_L1I AVERAGE MISS LATENCY: 1886 cycles
cpu3_L2C TOTAL        ACCESS:          0 HIT:          0 MISS:          0
cpu3_L2C LOAD         ACCESS:          0 HIT:          0 MISS:          0
cpu3_L2C RFO          ACCESS:          0 HIT:          0 MISS:          0
cpu3_L2C PREFETCH     ACCESS:          0 HIT:          0 MISS:          0
cpu3_L2C WRITE        ACCESS:          0 HIT:          0 MISS:          0
cpu3_L2C TRANSLATION  ACCESS:          0 HIT:          0 MISS:          0
cpu3_L2C PREFETCH REQUESTED:          0 ISSUED:          0 USEFUL:          0 USELESS:          0
cpu3_L2C AVERAGE MISS LATENCY: 4533 cycles
cpu3_L2C TOTAL        ACCESS:          0 HIT:          0 MISS:          0
cpu3_L2C LOAD         ACCESS:          0 HIT:          0 MISS:          0
cpu3_L2C RFO          ACCESS:          0 HIT:          0 MISS:          0
cpu3_L2C PREFETCH     ACCESS:          0 HIT:          0 MISS:          0
cpu3_L2C WRITE        ACCESS:          0 HIT:          0 MISS:          0
cpu3_L2C TRANSLATION  ACCESS:          0 HIT:          0 MISS:          0
cpu3_L2C PREFETCH REQUESTED:          0 ISSUED:          0 USEFUL:          0 USELESS:          0
cpu3_L2C AVERAGE MISS LATENCY: 4533 cycles
cpu3_L2C TOTAL        ACCESS:          0 HIT:          0 MISS:          0
cpu3_L2C LOAD         ACCESS:          0 HIT:          0 MISS:          0
cpu3_L2C RFO          ACCESS:          0 HIT:          0 MISS:          0
cpu3_L2C PREFETCH     ACCESS:          0 HIT:          0 MISS:          0
cpu3_L2C WRITE        ACCESS:          0 HIT:          0 MISS:          0
cpu3_L2C TRANSLATION  ACCESS:          0 HIT:          0 MISS:          0
cpu3_L2C PREFETCH REQUESTED:          0 ISSUED:          0 USEFUL:          0 USELESS:          0
cpu3_L2C AVERAGE MISS LATENCY: 4533 cycles
cpu3_L2C TOTAL        ACCESS:      36747 HIT:      18326 MISS:      18421
cpu3_L2C LOAD         ACCESS:      21054 HIT:      10503 MISS:      10551
cpu3_L2C RFO          ACCESS:       9282 HIT:       4604 MISS:       4678
cpu3_L2C PREFETCH     ACCESS:          0 HIT:          0 MISS:          0
cpu3_L2C WRITE        ACCESS:          0 HIT:          0 MISS:          0
cpu3_L2C TRANSLATION  ACCESS:       6411 HIT:       3219 MISS:       3192
cpu3_L2C PREFETCH REQUESTED:          0 ISSUED:          0 USEFUL:          0 USELESS:          0
cpu3_L2C AVERAGE MISS LATENCY: 4533 cycles
cpu3_STLB TOTAL        ACCESS:          0 HIT:          0 MISS:          0
cpu3_STLB LOAD         ACCESS:          0 HIT:          0 MISS:          0
cpu3_STLB RFO          ACCESS:          0 HIT:          0 MISS:          0
cpu3_STLB PREFETCH     ACCESS:          0 HIT:          0 MISS:          0
cpu3_STLB WRITE        ACCESS:          0 HIT:          0 MISS:          0
cpu3_STLB TRANSLATION  ACCESS:          0 HIT:          0 MISS:          0
cpu3_STLB PREFETCH REQUESTED:          0 ISSUED:          0 USEFUL:          0 USELESS:          0
cpu3_STLB AVERAGE MISS LATENCY: 1221 cycles
cpu3_STLB TOTAL        ACCESS:          0 HIT:          0 MISS:          0
cpu3_STLB LOAD         ACCESS:          0 HIT:          0 MISS:          0
cpu3_STLB RFO          ACCESS:          0 HIT:          0 MISS:          0
cpu3_STLB PREFETCH     ACCESS:          0 HIT:          0 MISS:          0
cpu3_STLB WRITE        ACCESS:          0 HIT:          0 MISS:          0
cpu3_STLB TRANSLATION  ACCESS:          0 HIT:          0 MISS:          0
cpu3_STLB PREFETCH REQUESTED:          0 ISSUED:          0 USEFUL:          0 USELESS:          0
cpu3_STLB AVERAGE MISS LATENCY: 1221 cycles
cpu3_STLB TOTAL        ACCESS:          0 HIT:          0 MISS:          0
cpu3_STLB LOAD         ACCESS:          0 HIT:          0 MISS:          0
cpu3_STLB RFO          ACCESS:          0 HIT:          0 MISS:          0
cpu3_STLB PREFETCH     ACCESS:          0 HIT:          0 MISS:          0
cpu3_STLB WRITE        ACCESS:          0 HIT:          0 MISS:          0
cpu3_STLB TRANSLATION  ACCESS:          0 HIT:          0 MISS:          0
cpu3_STLB PREFETCH REQUESTED:          0 ISSUED:          0 USEFUL:          0 USELESS:          0
cpu3_STLB AVERAGE MISS LATENCY: 1221 cycles
cpu3_STLB TOTAL        ACCESS:      25652 HIT:      12822 MISS:      12830
cpu3_STLB LOAD         ACCESS:      25652 HIT:      12822 MISS:      12830
cpu3_STLB RFO          ACCESS:          0 HIT:          0 MISS:          0
cpu3_STLB PREFETCH     ACCESS:          0 HIT:          0 MISS:          0
cpu3_STLB WRITE        ACCESS:          0 HIT:          0 MISS:          0
cpu3_STLB TRANSLATION  ACCESS:          0 HIT:          0 MISS:          0
cpu3_STLB PREFETCH REQUESTED:          0 ISSUED:          0 USEFUL:          0 USELESS:          0
cpu3_STLB AVERAGE MISS LATENCY: 1221 cycles

DRAM Statistics

Channel 0 RQ ROW_BUFFER_HIT:      37961
  ROW_BUFFER_MISS:     225361
 AVG DBUS CONGESTED CYCLE: 3.975
WQ ROW_BUFFER_HIT: Channel 0 
  ROW_BUFFER_MISS:          0
  FULL:          0
